<?xml version='1.0' encoding='UTF-8'?>
<routes>
    <vType id="hdv" length="4.3" carFollowModel="IDM" emergencyDecel="4.0" laneChangeModel="SL2015" latAlignment="arbitrary" lcKeepRight="0.0" lcOvertakeRight="0.0" maxSpeed="30.55" minGap="2.5" accel="1.5" decel="2" tau="1.4" lcSublane="1.0" maxSpeedLat="1.4" lcAccelLat="0.7" minGapLat="0.4" lcStrategic="10.0" lcCooperative="1.0" lcPushy="0.4" lcImpatience="0.9" lcSpeedGain="1.5">
        <param key="has.fcd.device" value="true" />
    </vType><route id="1070403831#1-AddedOnRampEdge_1040737038.qPKW.0" edges="1070403831#1-AddedOnRampEdge 977008894 977008893 977008892 1138588478 1138588478-AddedOffRampEdge 1040737038" />
    <route id="19441652#0_19442635.qPKW.0" edges="19441652#0 19441652#1-AddedOnRampEdge 19441652#1 992666043 19442635" />
    <route id="277208926_634155175.qPKW.0" edges="277208926 634155175-AddedOnRampEdge 634155175" />
    <route id="27828382_634155175.qPKW.0" edges="27828382 27828382-AddedOffRampEdge 974949114 977008894 977008893 977008892 977008891 992666043 992666042 634155175-AddedOnRampEdge 634155175" />
    <route id="19441652#0_19442635.qPKW.0.5" edges="19441652#0 19441652#1-AddedOnRampEdge 19441652#1 992666043 19442635" />
    <route id="27828382_634155175.qPKW.0.5" edges="27828382 27828382-AddedOffRampEdge 974949114 977008894 977008893 977008892 977008891 992666043 992666042 634155175-AddedOnRampEdge 634155175" />
    <route id="277208926_634155175.qPKW.1.0" edges="277208926 634155175-AddedOnRampEdge 634155175" />
    <route id="27828382_1040737038.qPKW.1.0" edges="27828382 27828382-AddedOffRampEdge 974949114 977008894 977008893 977008892 1138588478 1138588478-AddedOffRampEdge 1040737038" />
    <route id="27828382_634155175.qPKW.1.0" edges="27828382 27828382-AddedOffRampEdge 974949114 977008894 977008893 977008892 977008891 992666043 992666042 634155175-AddedOnRampEdge 634155175" />
    <route id="277208926_634155175.qPKW.1.5" edges="277208926 634155175-AddedOnRampEdge 634155175" />
    <route id="27828382_1040737038.qPKW.1.5" edges="27828382 27828382-AddedOffRampEdge 974949114 977008894 977008893 977008892 1138588478 1138588478-AddedOffRampEdge 1040737038" />
    <route id="27828382_634155175.qPKW.1.5" edges="27828382 27828382-AddedOffRampEdge 974949114 977008894 977008893 977008892 977008891 992666043 992666042 634155175-AddedOnRampEdge 634155175" />
    <route id="19441652#0_19442635.qPKW.2.0" edges="19441652#0 19441652#1-AddedOnRampEdge 19441652#1 992666043 19442635" />
    <route id="27828382_1040737038.qPKW.2.0" edges="27828382 27828382-AddedOffRampEdge 974949114 977008894 977008893 977008892 1138588478 1138588478-AddedOffRampEdge 1040737038" />
    <route id="27828382_634155175.qPKW.2.0" edges="27828382 27828382-AddedOffRampEdge 974949114 977008894 977008893 977008892 977008891 992666043 992666042 634155175-AddedOnRampEdge 634155175" />
    <route id="1070403831#1-AddedOnRampEdge_1040737038.qPKW.2.5" edges="1070403831#1-AddedOnRampEdge 977008894 977008893 977008892 1138588478 1138588478-AddedOffRampEdge 1040737038" />
    <route id="1070403831#1-AddedOnRampEdge_19442635.qPKW.2.5" edges="1070403831#1-AddedOnRampEdge 977008894 977008893 977008892 977008891 992666043 19442635" />
    <route id="19441652#0_19442635.qPKW.2.5" edges="19441652#0 19441652#1-AddedOnRampEdge 19441652#1 992666043 19442635" />
    <route id="27828382_1040737038.qPKW.2.5" edges="27828382 27828382-AddedOffRampEdge 974949114 977008894 977008893 977008892 1138588478 1138588478-AddedOffRampEdge 1040737038" />
    <route id="27828382_634155175.qPKW.2.5" edges="27828382 27828382-AddedOffRampEdge 974949114 977008894 977008893 977008892 977008891 992666043 992666042 634155175-AddedOnRampEdge 634155175" />
    <route id="1070403831#1-AddedOnRampEdge_1040737038.qPKW.3.0" edges="1070403831#1-AddedOnRampEdge 977008894 977008893 977008892 1138588478 1138588478-AddedOffRampEdge 1040737038" />
    <route id="1070403831#1-AddedOnRampEdge_19442635.qPKW.3.0" edges="1070403831#1-AddedOnRampEdge 977008894 977008893 977008892 977008891 992666043 19442635" />
    <route id="27828382_1040737038.qPKW.3.0" edges="27828382 27828382-AddedOffRampEdge 974949114 977008894 977008893 977008892 1138588478 1138588478-AddedOffRampEdge 1040737038" />
    <route id="27828382_634155175.qPKW.3.0" edges="27828382 27828382-AddedOffRampEdge 974949114 977008894 977008893 977008892 977008891 992666043 992666042 634155175-AddedOnRampEdge 634155175" />
    <route id="1070403831#1-AddedOnRampEdge_1040737038.qPKW.3.5" edges="1070403831#1-AddedOnRampEdge 977008894 977008893 977008892 1138588478 1138588478-AddedOffRampEdge 1040737038" />
    <route id="1070403831#1-AddedOnRampEdge_19442635.qPKW.3.5" edges="1070403831#1-AddedOnRampEdge 977008894 977008893 977008892 977008891 992666043 19442635" />
    <route id="19441652#0_19442635.qPKW.3.5" edges="19441652#0 19441652#1-AddedOnRampEdge 19441652#1 992666043 19442635" />
    <route id="27828382_1040737038.qPKW.3.5" edges="27828382 27828382-AddedOffRampEdge 974949114 977008894 977008893 977008892 1138588478 1138588478-AddedOffRampEdge 1040737038" />
    <route id="27828382_634155175.qPKW.3.5" edges="27828382 27828382-AddedOffRampEdge 974949114 977008894 977008893 977008892 977008891 992666043 992666042 634155175-AddedOnRampEdge 634155175" />
    <route id="1070403831#1-AddedOnRampEdge_1040737038.qPKW.4.0" edges="1070403831#1-AddedOnRampEdge 977008894 977008893 977008892 1138588478 1138588478-AddedOffRampEdge 1040737038" />
    <route id="1070403831#1-AddedOnRampEdge_19442635.qPKW.4.0" edges="1070403831#1-AddedOnRampEdge 977008894 977008893 977008892 977008891 992666043 19442635" />
    <route id="19441652#0_19442635.qPKW.4.0" edges="19441652#0 19441652#1-AddedOnRampEdge 19441652#1 992666043 19442635" />
    <route id="27828382_1040737038.qPKW.4.0" edges="27828382 27828382-AddedOffRampEdge 974949114 977008894 977008893 977008892 1138588478 1138588478-AddedOffRampEdge 1040737038" />
    <route id="27828382_634155175.qPKW.4.0" edges="27828382 27828382-AddedOffRampEdge 974949114 977008894 977008893 977008892 977008891 992666043 992666042 634155175-AddedOnRampEdge 634155175" />
    <route id="1070403831#1-AddedOnRampEdge_1040737038.qPKW.4.5" edges="1070403831#1-AddedOnRampEdge 977008894 977008893 977008892 1138588478 1138588478-AddedOffRampEdge 1040737038" />
    <route id="1070403831#1-AddedOnRampEdge_19442635.qPKW.4.5" edges="1070403831#1-AddedOnRampEdge 977008894 977008893 977008892 977008891 992666043 19442635" />
    <route id="19441652#0_19442635.qPKW.4.5" edges="19441652#0 19441652#1-AddedOnRampEdge 19441652#1 992666043 19442635" />
    <route id="277208926_634155175.qPKW.4.5" edges="277208926 634155175-AddedOnRampEdge 634155175" />
    <route id="27828382_634155175.qPKW.4.5" edges="27828382 27828382-AddedOffRampEdge 974949114 977008894 977008893 977008892 977008891 992666043 992666042 634155175-AddedOnRampEdge 634155175" />
    <route id="1070403831#1-AddedOnRampEdge_1040737038.qPKW.5.0" edges="1070403831#1-AddedOnRampEdge 977008894 977008893 977008892 1138588478 1138588478-AddedOffRampEdge 1040737038" />
    <route id="1070403831#1-AddedOnRampEdge_19442635.qPKW.5.0" edges="1070403831#1-AddedOnRampEdge 977008894 977008893 977008892 977008891 992666043 19442635" />
    <route id="19441652#0_19442635.qPKW.5.0" edges="19441652#0 19441652#1-AddedOnRampEdge 19441652#1 992666043 19442635" />
    <route id="277208926_634155175.qPKW.5.0" edges="277208926 634155175-AddedOnRampEdge 634155175" />
    <route id="27828382_634155175.qPKW.5.0" edges="27828382 27828382-AddedOffRampEdge 974949114 977008894 977008893 977008892 977008891 992666043 992666042 634155175-AddedOnRampEdge 634155175" />
    <route id="1070403831#1-AddedOnRampEdge_1040737038.qPKW.5.5" edges="1070403831#1-AddedOnRampEdge 977008894 977008893 977008892 1138588478 1138588478-AddedOffRampEdge 1040737038" />
    <route id="1070403831#1-AddedOnRampEdge_19442635.qPKW.5.5" edges="1070403831#1-AddedOnRampEdge 977008894 977008893 977008892 977008891 992666043 19442635" />
    <route id="19441652#0_19442635.qPKW.5.5" edges="19441652#0 19441652#1-AddedOnRampEdge 19441652#1 992666043 19442635" />
    <route id="277208926_634155175.qPKW.5.5" edges="277208926 634155175-AddedOnRampEdge 634155175" />
    <route id="27828382_634155175.qPKW.5.5" edges="27828382 27828382-AddedOffRampEdge 974949114 977008894 977008893 977008892 977008891 992666043 992666042 634155175-AddedOnRampEdge 634155175" />
    <route id="1070403831#1-AddedOnRampEdge_1040737038.qPKW.6.0" edges="1070403831#1-AddedOnRampEdge 977008894 977008893 977008892 1138588478 1138588478-AddedOffRampEdge 1040737038" />
    <route id="1070403831#1-AddedOnRampEdge_19442635.qPKW.6.0" edges="1070403831#1-AddedOnRampEdge 977008894 977008893 977008892 977008891 992666043 19442635" />
    <route id="19441652#0_19442635.qPKW.6.0" edges="19441652#0 19441652#1-AddedOnRampEdge 19441652#1 992666043 19442635" />
    <route id="277208926_634155175.qPKW.6.0" edges="277208926 634155175-AddedOnRampEdge 634155175" />
    <route id="27828382_634155175.qPKW.6.0" edges="27828382 27828382-AddedOffRampEdge 974949114 977008894 977008893 977008892 977008891 992666043 992666042 634155175-AddedOnRampEdge 634155175" />
    <route id="1070403831#1-AddedOnRampEdge_1040737038.qPKW.6.5" edges="1070403831#1-AddedOnRampEdge 977008894 977008893 977008892 1138588478 1138588478-AddedOffRampEdge 1040737038" />
    <route id="1070403831#1-AddedOnRampEdge_19442635.qPKW.6.5" edges="1070403831#1-AddedOnRampEdge 977008894 977008893 977008892 977008891 992666043 19442635" />
    <route id="277208926_634155175.qPKW.6.5" edges="277208926 634155175-AddedOnRampEdge 634155175" />
    <route id="27828382_634155175.qPKW.6.5" edges="27828382 27828382-AddedOffRampEdge 974949114 977008894 977008893 977008892 977008891 992666043 992666042 634155175-AddedOnRampEdge 634155175" />
    <route id="1070403831#1-AddedOnRampEdge_1040737038.qPKW.7.0" edges="1070403831#1-AddedOnRampEdge 977008894 977008893 977008892 1138588478 1138588478-AddedOffRampEdge 1040737038" />
    <route id="1070403831#1-AddedOnRampEdge_19442635.qPKW.7.0" edges="1070403831#1-AddedOnRampEdge 977008894 977008893 977008892 977008891 992666043 19442635" />
    <route id="19441652#0_19442635.qPKW.7.0" edges="19441652#0 19441652#1-AddedOnRampEdge 19441652#1 992666043 19442635" />
    <route id="277208926_634155175.qPKW.7.0" edges="277208926 634155175-AddedOnRampEdge 634155175" />
    <route id="27828382_634155175.qPKW.7.0" edges="27828382 27828382-AddedOffRampEdge 974949114 977008894 977008893 977008892 977008891 992666043 992666042 634155175-AddedOnRampEdge 634155175" />
    <route id="1070403831#1-AddedOnRampEdge_1040737038.qPKW.7.5" edges="1070403831#1-AddedOnRampEdge 977008894 977008893 977008892 1138588478 1138588478-AddedOffRampEdge 1040737038" />
    <route id="1070403831#1-AddedOnRampEdge_19442635.qPKW.7.5" edges="1070403831#1-AddedOnRampEdge 977008894 977008893 977008892 977008891 992666043 19442635" />
    <route id="19441652#0_19442635.qPKW.7.5" edges="19441652#0 19441652#1-AddedOnRampEdge 19441652#1 992666043 19442635" />
    <route id="277208926_634155175.qPKW.7.5" edges="277208926 634155175-AddedOnRampEdge 634155175" />
    <route id="27828382_634155175.qPKW.7.5" edges="27828382 27828382-AddedOffRampEdge 974949114 977008894 977008893 977008892 977008891 992666043 992666042 634155175-AddedOnRampEdge 634155175" />
    <route id="1070403831#1-AddedOnRampEdge_1040737038.qPKW.8.0" edges="1070403831#1-AddedOnRampEdge 977008894 977008893 977008892 1138588478 1138588478-AddedOffRampEdge 1040737038" />
    <route id="1070403831#1-AddedOnRampEdge_19442635.qPKW.8.0" edges="1070403831#1-AddedOnRampEdge 977008894 977008893 977008892 977008891 992666043 19442635" />
    <route id="19441652#0_19442635.qPKW.8.0" edges="19441652#0 19441652#1-AddedOnRampEdge 19441652#1 992666043 19442635" />
    <route id="277208926_634155175.qPKW.8.0" edges="277208926 634155175-AddedOnRampEdge 634155175" />
    <route id="27828382_634155175.qPKW.8.0" edges="27828382 27828382-AddedOffRampEdge 974949114 977008894 977008893 977008892 977008891 992666043 992666042 634155175-AddedOnRampEdge 634155175" />
    <route id="1070403831#1-AddedOnRampEdge_1040737038.qPKW.8.5" edges="1070403831#1-AddedOnRampEdge 977008894 977008893 977008892 1138588478 1138588478-AddedOffRampEdge 1040737038" />
    <route id="19441652#0_19442635.qPKW.8.5" edges="19441652#0 19441652#1-AddedOnRampEdge 19441652#1 992666043 19442635" />
    <route id="277208926_634155175.qPKW.8.5" edges="277208926 634155175-AddedOnRampEdge 634155175" />
    <route id="27828382_1040737038.qPKW.8.5" edges="27828382 27828382-AddedOffRampEdge 974949114 977008894 977008893 977008892 1138588478 1138588478-AddedOffRampEdge 1040737038" />
    <route id="27828382_634155175.qPKW.8.5" edges="27828382 27828382-AddedOffRampEdge 974949114 977008894 977008893 977008892 977008891 992666043 992666042 634155175-AddedOnRampEdge 634155175" />
    <route id="1070403831#1-AddedOnRampEdge_1040737038.qPKW.9.0" edges="1070403831#1-AddedOnRampEdge 977008894 977008893 977008892 1138588478 1138588478-AddedOffRampEdge 1040737038" />
    <route id="1070403831#1-AddedOnRampEdge_19442635.qPKW.9.0" edges="1070403831#1-AddedOnRampEdge 977008894 977008893 977008892 977008891 992666043 19442635" />
    <route id="19441652#0_19442635.qPKW.9.0" edges="19441652#0 19441652#1-AddedOnRampEdge 19441652#1 992666043 19442635" />
    <route id="277208926_634155175.qPKW.9.0" edges="277208926 634155175-AddedOnRampEdge 634155175" />
    <route id="27828382_634155175.qPKW.9.0" edges="27828382 27828382-AddedOffRampEdge 974949114 977008894 977008893 977008892 977008891 992666043 992666042 634155175-AddedOnRampEdge 634155175" />
    <route id="1070403831#1-AddedOnRampEdge_1040737038.qPKW.9.5" edges="1070403831#1-AddedOnRampEdge 977008894 977008893 977008892 1138588478 1138588478-AddedOffRampEdge 1040737038" />
    <route id="1070403831#1-AddedOnRampEdge_19442635.qPKW.9.5" edges="1070403831#1-AddedOnRampEdge 977008894 977008893 977008892 977008891 992666043 19442635" />
    <route id="19441652#0_19442635.qPKW.9.5" edges="19441652#0 19441652#1-AddedOnRampEdge 19441652#1 992666043 19442635" />
    <route id="277208926_634155175.qPKW.9.5" edges="277208926 634155175-AddedOnRampEdge 634155175" />
    <route id="27828382_634155175.qPKW.9.5" edges="27828382 27828382-AddedOffRampEdge 974949114 977008894 977008893 977008892 977008891 992666043 992666042 634155175-AddedOnRampEdge 634155175" />
    <route id="1070403831#1-AddedOnRampEdge_1040737038.qPKW.10.0" edges="1070403831#1-AddedOnRampEdge 977008894 977008893 977008892 1138588478 1138588478-AddedOffRampEdge 1040737038" />
    <route id="19441652#0_19442635.qPKW.10.0" edges="19441652#0 19441652#1-AddedOnRampEdge 19441652#1 992666043 19442635" />
    <route id="277208926_634155175.qPKW.10.0" edges="277208926 634155175-AddedOnRampEdge 634155175" />
    <route id="27828382_1040737038.qPKW.10.0" edges="27828382 27828382-AddedOffRampEdge 974949114 977008894 977008893 977008892 1138588478 1138588478-AddedOffRampEdge 1040737038" />
    <route id="27828382_634155175.qPKW.10.0" edges="27828382 27828382-AddedOffRampEdge 974949114 977008894 977008893 977008892 977008891 992666043 992666042 634155175-AddedOnRampEdge 634155175" />
    <route id="1070403831#1-AddedOnRampEdge_1040737038.qPKW.10.5" edges="1070403831#1-AddedOnRampEdge 977008894 977008893 977008892 1138588478 1138588478-AddedOffRampEdge 1040737038" />
    <route id="1070403831#1-AddedOnRampEdge_19442635.qPKW.10.5" edges="1070403831#1-AddedOnRampEdge 977008894 977008893 977008892 977008891 992666043 19442635" />
    <route id="19441652#0_19442635.qPKW.10.5" edges="19441652#0 19441652#1-AddedOnRampEdge 19441652#1 992666043 19442635" />
    <route id="27828382_1040737038.qPKW.10.5" edges="27828382 27828382-AddedOffRampEdge 974949114 977008894 977008893 977008892 1138588478 1138588478-AddedOffRampEdge 1040737038" />
    <route id="27828382_634155175.qPKW.10.5" edges="27828382 27828382-AddedOffRampEdge 974949114 977008894 977008893 977008892 977008891 992666043 992666042 634155175-AddedOnRampEdge 634155175" />
    <route id="1070403831#1-AddedOnRampEdge_19442635.qPKW.11.0" edges="1070403831#1-AddedOnRampEdge 977008894 977008893 977008892 977008891 992666043 19442635" />
    <route id="19441652#0_19442635.qPKW.11.0" edges="19441652#0 19441652#1-AddedOnRampEdge 19441652#1 992666043 19442635" />
    <route id="27828382_1040737038.qPKW.11.0" edges="27828382 27828382-AddedOffRampEdge 974949114 977008894 977008893 977008892 1138588478 1138588478-AddedOffRampEdge 1040737038" />
    <route id="27828382_19442635.qPKW.11.0" edges="27828382 27828382-AddedOffRampEdge 974949114 977008894 977008893 977008892 977008891 992666043 19442635" />
    <route id="27828382_634155175.qPKW.11.0" edges="27828382 27828382-AddedOffRampEdge 974949114 977008894 977008893 977008892 977008891 992666043 992666042 634155175-AddedOnRampEdge 634155175" />
    <route id="1070403831#1-AddedOnRampEdge_1040737038.qPKW.11.5" edges="1070403831#1-AddedOnRampEdge 977008894 977008893 977008892 1138588478 1138588478-AddedOffRampEdge 1040737038" />
    <route id="1070403831#1-AddedOnRampEdge_19442635.qPKW.11.5" edges="1070403831#1-AddedOnRampEdge 977008894 977008893 977008892 977008891 992666043 19442635" />
    <route id="19441652#0_19442635.qPKW.11.5" edges="19441652#0 19441652#1-AddedOnRampEdge 19441652#1 992666043 19442635" />
    <route id="27828382_1040737038.qPKW.11.5" edges="27828382 27828382-AddedOffRampEdge 974949114 977008894 977008893 977008892 1138588478 1138588478-AddedOffRampEdge 1040737038" />
    <route id="27828382_634155175.qPKW.11.5" edges="27828382 27828382-AddedOffRampEdge 974949114 977008894 977008893 977008892 977008891 992666043 992666042 634155175-AddedOnRampEdge 634155175" />
    <route id="19441652#0_19442635.qPKW.12.0" edges="19441652#0 19441652#1-AddedOnRampEdge 19441652#1 992666043 19442635" />
    <route id="27828382_19442635.qPKW.12.0" edges="27828382 27828382-AddedOffRampEdge 974949114 977008894 977008893 977008892 977008891 992666043 19442635" />
    <route id="27828382_634155175.qPKW.12.0" edges="27828382 27828382-AddedOffRampEdge 974949114 977008894 977008893 977008892 977008891 992666043 992666042 634155175-AddedOnRampEdge 634155175" />
    <route id="27828382_1040737038.qPKW.12.5" edges="27828382 27828382-AddedOffRampEdge 974949114 977008894 977008893 977008892 1138588478 1138588478-AddedOffRampEdge 1040737038" />
    <route id="27828382_19442635.qPKW.12.5" edges="27828382 27828382-AddedOffRampEdge 974949114 977008894 977008893 977008892 977008891 992666043 19442635" />
    <route id="27828382_634155175.qPKW.12.5" edges="27828382 27828382-AddedOffRampEdge 974949114 977008894 977008893 977008892 977008891 992666043 992666042 634155175-AddedOnRampEdge 634155175" />
    <route id="277208926_634155175.qPKW.13.0" edges="277208926 634155175-AddedOnRampEdge 634155175" />
    <route id="27828382_1040737038.qPKW.13.0" edges="27828382 27828382-AddedOffRampEdge 974949114 977008894 977008893 977008892 1138588478 1138588478-AddedOffRampEdge 1040737038" />
    <route id="27828382_634155175.qPKW.13.0" edges="27828382 27828382-AddedOffRampEdge 974949114 977008894 977008893 977008892 977008891 992666043 992666042 634155175-AddedOnRampEdge 634155175" />
    <route id="277208926_634155175.qPKW.13.5" edges="277208926 634155175-AddedOnRampEdge 634155175" />
    <route id="27828382_1040737038.qPKW.13.5" edges="27828382 27828382-AddedOffRampEdge 974949114 977008894 977008893 977008892 1138588478 1138588478-AddedOffRampEdge 1040737038" />
    <route id="27828382_634155175.qPKW.13.5" edges="27828382 27828382-AddedOffRampEdge 974949114 977008894 977008893 977008892 977008891 992666043 992666042 634155175-AddedOnRampEdge 634155175" />
    <route id="1070403831#1-AddedOnRampEdge_1040737038.qPKW.14.0" edges="1070403831#1-AddedOnRampEdge 977008894 977008893 977008892 1138588478 1138588478-AddedOffRampEdge 1040737038" />
    <route id="1070403831#1-AddedOnRampEdge_19442635.qPKW.14.0" edges="1070403831#1-AddedOnRampEdge 977008894 977008893 977008892 977008891 992666043 19442635" />
    <route id="27828382_1040737038.qPKW.14.0" edges="27828382 27828382-AddedOffRampEdge 974949114 977008894 977008893 977008892 1138588478 1138588478-AddedOffRampEdge 1040737038" />
    <route id="27828382_634155175.qPKW.14.0" edges="27828382 27828382-AddedOffRampEdge 974949114 977008894 977008893 977008892 977008891 992666043 992666042 634155175-AddedOnRampEdge 634155175" />
    <route id="1070403831#1-AddedOnRampEdge_1040737038.qPKW.14.5" edges="1070403831#1-AddedOnRampEdge 977008894 977008893 977008892 1138588478 1138588478-AddedOffRampEdge 1040737038" />
    <route id="1070403831#1-AddedOnRampEdge_19442635.qPKW.14.5" edges="1070403831#1-AddedOnRampEdge 977008894 977008893 977008892 977008891 992666043 19442635" />
    <route id="19441652#0_19442635.qPKW.14.5" edges="19441652#0 19441652#1-AddedOnRampEdge 19441652#1 992666043 19442635" />
    <route id="277208926_634155175.qPKW.14.5" edges="277208926 634155175-AddedOnRampEdge 634155175" />
    <route id="27828382_634155175.qPKW.14.5" edges="27828382 27828382-AddedOffRampEdge 974949114 977008894 977008893 977008892 977008891 992666043 992666042 634155175-AddedOnRampEdge 634155175" />
    <route id="1070403831#1-AddedOnRampEdge_1040737038.qPKW.15.0" edges="1070403831#1-AddedOnRampEdge 977008894 977008893 977008892 1138588478 1138588478-AddedOffRampEdge 1040737038" />
    <route id="1070403831#1-AddedOnRampEdge_19442635.qPKW.15.0" edges="1070403831#1-AddedOnRampEdge 977008894 977008893 977008892 977008891 992666043 19442635" />
    <route id="19441652#0_19442635.qPKW.15.0" edges="19441652#0 19441652#1-AddedOnRampEdge 19441652#1 992666043 19442635" />
    <route id="277208926_634155175.qPKW.15.0" edges="277208926 634155175-AddedOnRampEdge 634155175" />
    <route id="27828382_634155175.qPKW.15.0" edges="27828382 27828382-AddedOffRampEdge 974949114 977008894 977008893 977008892 977008891 992666043 992666042 634155175-AddedOnRampEdge 634155175" />
    <route id="1070403831#1-AddedOnRampEdge_19442635.qPKW.15.5" edges="1070403831#1-AddedOnRampEdge 977008894 977008893 977008892 977008891 992666043 19442635" />
    <route id="19441652#0_19442635.qPKW.15.5" edges="19441652#0 19441652#1-AddedOnRampEdge 19441652#1 992666043 19442635" />
    <route id="277208926_634155175.qPKW.15.5" edges="277208926 634155175-AddedOnRampEdge 634155175" />
    <route id="27828382_634155175.qPKW.15.5" edges="27828382 27828382-AddedOffRampEdge 974949114 977008894 977008893 977008892 977008891 992666043 992666042 634155175-AddedOnRampEdge 634155175" />
    <route id="1070403831#1-AddedOnRampEdge_1040737038.qPKW.16.0" edges="1070403831#1-AddedOnRampEdge 977008894 977008893 977008892 1138588478 1138588478-AddedOffRampEdge 1040737038" />
    <route id="19441652#0_19442635.qPKW.16.0" edges="19441652#0 19441652#1-AddedOnRampEdge 19441652#1 992666043 19442635" />
    <route id="277208926_634155175.qPKW.16.0" edges="277208926 634155175-AddedOnRampEdge 634155175" />
    <route id="27828382_1040737038.qPKW.16.0" edges="27828382 27828382-AddedOffRampEdge 974949114 977008894 977008893 977008892 1138588478 1138588478-AddedOffRampEdge 1040737038" />
    <route id="27828382_634155175.qPKW.16.0" edges="27828382 27828382-AddedOffRampEdge 974949114 977008894 977008893 977008892 977008891 992666043 992666042 634155175-AddedOnRampEdge 634155175" />
    <route id="19441652#0_19442635.qPKW.16.5" edges="19441652#0 19441652#1-AddedOnRampEdge 19441652#1 992666043 19442635" />
    <route id="277208926_634155175.qPKW.16.5" edges="277208926 634155175-AddedOnRampEdge 634155175" />
    <route id="27828382_634155175.qPKW.16.5" edges="27828382 27828382-AddedOffRampEdge 974949114 977008894 977008893 977008892 977008891 992666043 992666042 634155175-AddedOnRampEdge 634155175" />
    <route id="19441652#0_19442635.qPKW.17.0" edges="19441652#0 19441652#1-AddedOnRampEdge 19441652#1 992666043 19442635" />
    <route id="277208926_634155175.qPKW.17.0" edges="277208926 634155175-AddedOnRampEdge 634155175" />
    <route id="27828382_1040737038.qPKW.17.0" edges="27828382 27828382-AddedOffRampEdge 974949114 977008894 977008893 977008892 1138588478 1138588478-AddedOffRampEdge 1040737038" />
    <route id="27828382_634155175.qPKW.17.0" edges="27828382 27828382-AddedOffRampEdge 974949114 977008894 977008893 977008892 977008891 992666043 992666042 634155175-AddedOnRampEdge 634155175" />
    <route id="19441652#0_19442635.qPKW.17.5" edges="19441652#0 19441652#1-AddedOnRampEdge 19441652#1 992666043 19442635" />
    <route id="277208926_634155175.qPKW.17.5" edges="277208926 634155175-AddedOnRampEdge 634155175" />
    <route id="27828382_634155175.qPKW.17.5" edges="27828382 27828382-AddedOffRampEdge 974949114 977008894 977008893 977008892 977008891 992666043 992666042 634155175-AddedOnRampEdge 634155175" />
    <route id="19441652#0_19442635.qPKW.18.0" edges="19441652#0 19441652#1-AddedOnRampEdge 19441652#1 992666043 19442635" />
    <route id="277208926_634155175.qPKW.18.0" edges="277208926 634155175-AddedOnRampEdge 634155175" />
    <route id="27828382_1040737038.qPKW.18.0" edges="27828382 27828382-AddedOffRampEdge 974949114 977008894 977008893 977008892 1138588478 1138588478-AddedOffRampEdge 1040737038" />
    <route id="27828382_634155175.qPKW.18.0" edges="27828382 27828382-AddedOffRampEdge 974949114 977008894 977008893 977008892 977008891 992666043 992666042 634155175-AddedOnRampEdge 634155175" />
    <route id="19441652#0_19442635.qPKW.18.5" edges="19441652#0 19441652#1-AddedOnRampEdge 19441652#1 992666043 19442635" />
    <route id="277208926_634155175.qPKW.18.5" edges="277208926 634155175-AddedOnRampEdge 634155175" />
    <route id="27828382_634155175.qPKW.18.5" edges="27828382 27828382-AddedOffRampEdge 974949114 977008894 977008893 977008892 977008891 992666043 992666042 634155175-AddedOnRampEdge 634155175" />
    <route id="19441652#0_19442635.qPKW.19.0" edges="19441652#0 19441652#1-AddedOnRampEdge 19441652#1 992666043 19442635" />
    <route id="277208926_634155175.qPKW.19.0" edges="277208926 634155175-AddedOnRampEdge 634155175" />
    <route id="27828382_1040737038.qPKW.19.0" edges="27828382 27828382-AddedOffRampEdge 974949114 977008894 977008893 977008892 1138588478 1138588478-AddedOffRampEdge 1040737038" />
    <route id="27828382_634155175.qPKW.19.0" edges="27828382 27828382-AddedOffRampEdge 974949114 977008894 977008893 977008892 977008891 992666043 992666042 634155175-AddedOnRampEdge 634155175" />
    <route id="1070403831#1-AddedOnRampEdge_1040737038.qPKW.19.5" edges="1070403831#1-AddedOnRampEdge 977008894 977008893 977008892 1138588478 1138588478-AddedOffRampEdge 1040737038" />
    <route id="1070403831#1-AddedOnRampEdge_19442635.qPKW.19.5" edges="1070403831#1-AddedOnRampEdge 977008894 977008893 977008892 977008891 992666043 19442635" />
    <route id="277208926_634155175.qPKW.19.5" edges="277208926 634155175-AddedOnRampEdge 634155175" />
    <route id="27828382_634155175.qPKW.19.5" edges="27828382 27828382-AddedOffRampEdge 974949114 977008894 977008893 977008892 977008891 992666043 992666042 634155175-AddedOnRampEdge 634155175" />
    <route id="1070403831#1-AddedOnRampEdge_19442635.qPKW.20.0" edges="1070403831#1-AddedOnRampEdge 977008894 977008893 977008892 977008891 992666043 19442635" />
    <route id="19441652#0_19442635.qPKW.20.0" edges="19441652#0 19441652#1-AddedOnRampEdge 19441652#1 992666043 19442635" />
    <route id="277208926_634155175.qPKW.20.0" edges="277208926 634155175-AddedOnRampEdge 634155175" />
    <route id="27828382_634155175.qPKW.20.0" edges="27828382 27828382-AddedOffRampEdge 974949114 977008894 977008893 977008892 977008891 992666043 992666042 634155175-AddedOnRampEdge 634155175" />
    <route id="1070403831#1-AddedOnRampEdge_1040737038.qPKW.20.5" edges="1070403831#1-AddedOnRampEdge 977008894 977008893 977008892 1138588478 1138588478-AddedOffRampEdge 1040737038" />
    <route id="1070403831#1-AddedOnRampEdge_19442635.qPKW.20.5" edges="1070403831#1-AddedOnRampEdge 977008894 977008893 977008892 977008891 992666043 19442635" />
    <route id="19441652#0_19442635.qPKW.20.5" edges="19441652#0 19441652#1-AddedOnRampEdge 19441652#1 992666043 19442635" />
    <route id="277208926_634155175.qPKW.20.5" edges="277208926 634155175-AddedOnRampEdge 634155175" />
    <route id="27828382_634155175.qPKW.20.5" edges="27828382 27828382-AddedOffRampEdge 974949114 977008894 977008893 977008892 977008891 992666043 992666042 634155175-AddedOnRampEdge 634155175" />
    <route id="1070403831#1-AddedOnRampEdge_1040737038.qPKW.21.0" edges="1070403831#1-AddedOnRampEdge 977008894 977008893 977008892 1138588478 1138588478-AddedOffRampEdge 1040737038" />
    <route id="1070403831#1-AddedOnRampEdge_19442635.qPKW.21.0" edges="1070403831#1-AddedOnRampEdge 977008894 977008893 977008892 977008891 992666043 19442635" />
    <route id="19441652#0_19442635.qPKW.21.0" edges="19441652#0 19441652#1-AddedOnRampEdge 19441652#1 992666043 19442635" />
    <route id="277208926_634155175.qPKW.21.0" edges="277208926 634155175-AddedOnRampEdge 634155175" />
    <route id="27828382_634155175.qPKW.21.0" edges="27828382 27828382-AddedOffRampEdge 974949114 977008894 977008893 977008892 977008891 992666043 992666042 634155175-AddedOnRampEdge 634155175" />
    <route id="1070403831#1-AddedOnRampEdge_1040737038.qPKW.21.5" edges="1070403831#1-AddedOnRampEdge 977008894 977008893 977008892 1138588478 1138588478-AddedOffRampEdge 1040737038" />
    <route id="1070403831#1-AddedOnRampEdge_19442635.qPKW.21.5" edges="1070403831#1-AddedOnRampEdge 977008894 977008893 977008892 977008891 992666043 19442635" />
    <route id="19441652#0_19442635.qPKW.21.5" edges="19441652#0 19441652#1-AddedOnRampEdge 19441652#1 992666043 19442635" />
    <route id="277208926_634155175.qPKW.21.5" edges="277208926 634155175-AddedOnRampEdge 634155175" />