<?xml version="1.0" ?>
<routes>
    <vType id="hdv" length="4.3" carFollowModel="IDM" emergencyDecel="4.0" cf="{'maxSpeed': 30.55, 'minGap': 2.5, 'accel': 1.5, 'decel': 2, 'tau': 1.4, 'emergencyDecel': 4.0}" lc="{'laneChangeModel': 'SL2015', 'lcSublane': 1.0, 'latAlignment': 'arbitrary', 'maxSpeedLat': 1.4, 'lcAccelLat': 0.7, 'minGapLat': 0.4, 'lcStrategic': 10.0, 'lcCooperative': 1.0, 'lcPushy': 0.4, 'lcImpatience': 0.9, 'lcSpeedGain': 1.5, 'lcKeepRight': 0.0, 'lcOvertakeRight': 0.0}" />

    <route id="1" edges="277208926 634155175-AddedOnRampEdge 634155175"/>
    <route id="2" edges="27828382 27828382-AddedOffRampEdge 180933397"/>
    <route id="3" edges="19441652#0 19441652#1-AddedOnRampEdge 19441652#1 992666043 19442635"/>
    <route id="4" edges="1016548847 19441652#1-AddedOnRampEdge 19441652#1 992666043 19442635"/>
    <route id="9" edges="19441652#0 19441652#1-AddedOnRampEdge 19441652#1 992666043 992666042 634155175-AddedOnRampEdge 634155175"/>
    <route id="10" edges="1016548847 19441652#1-AddedOnRampEdge 19441652#1 992666043 992666042 634155175-AddedOnRampEdge 634155175"/>
    <route id="11" edges="1070403831#1-AddedOnRampEdge 977008894 977008893 977008892 1138588478 1138588478-AddedOffRampEdge 1040737038"/>
    <route id="12" edges="1070403831#1-AddedOnRampEdge 977008894 977008893 977008892 1138588478 1138588478-AddedOffRampEdge 19440902"/>
    <route id="13" edges="1070403831#1-AddedOnRampEdge 977008894 977008893 977008892 977008891 992666043 19442635"/>
    <route id="19" edges="27828382 27828382-AddedOffRampEdge 974949114 977008894 977008893 977008892 1138588478 1138588478-AddedOffRampEdge 1040737038"/>
    <route id="20" edges="27828382 27828382-AddedOffRampEdge 974949114 977008894 977008893 977008892 1138588478 1138588478-AddedOffRampEdge 19440902"/>
    <route id="21" edges="27828382 27828382-AddedOffRampEdge 974949114 977008894 977008893 977008892 977008891 992666043 19442635"/>
    <route id="23" edges="1070403831#1-AddedOnRampEdge 977008894 977008893 977008892 977008891 992666043 992666042 634155175-AddedOnRampEdge 634155175"/>
    <route id="25" edges="27828382 27828382-AddedOffRampEdge 974949114 977008894 977008893 977008892 977008891 992666043 992666042 634155175-AddedOnRampEdge 634155175"/>
    <flow id="flow_1_360" route="1" begin="0" end="60" vehsPerHour="144" departSpeed="desired" type="hdv"/>
    <flow id="flow_9_360" route="9" begin="0" end="60" vehsPerHour="360" departSpeed="desired" type="hdv"/>
    <flow id="flow_10_360" route="10" begin="0" end="60" vehsPerHour="360" departSpeed="desired" type="hdv"/>
    <flow id="flow_23_360" route="23" begin="0" end="60" vehsPerHour="756" departSpeed="desired" type="hdv"/>
    <flow id="flow_25_360" route="25" begin="0" end="60" vehsPerHour="792" departSpeed="desired" type="hdv"/>
    <flow id="flow_3_360" route="3" begin="0" end="60" vehsPerHour="45" departSpeed="desired" type="hdv"/>
    <flow id="flow_4_360" route="4" begin="0" end="60" vehsPerHour="45" departSpeed="desired" type="hdv"/>
    <flow id="flow_13_360" route="13" begin="0" end="60" vehsPerHour="127" departSpeed="desired" type="hdv"/>
    <flow id="flow_21_360" route="21" begin="0" end="60" vehsPerHour="135" departSpeed="desired" type="hdv"/>
    <flow id="flow_11_360" route="11" begin="0" end="60" vehsPerHour="77" departSpeed="desired" type="hdv"/>
    <flow id="flow_12_360" route="12" begin="0" end="60" vehsPerHour="77" departSpeed="desired" type="hdv"/>
    <flow id="flow_19_360" route="19" begin="0" end="60" vehsPerHour="85" departSpeed="desired" type="hdv"/>
    <flow id="flow_20_360" route="20" begin="0" end="60" vehsPerHour="85" departSpeed="desired" type="hdv"/>
    <flow id="flow_1_361" route="1" begin="60" end="120" vehsPerHour="96" departSpeed="desired" type="hdv"/>
    <flow id="flow_9_361" route="9" begin="60" end="120" vehsPerHour="696" departSpeed="desired" type="hdv"/>
    <flow id="flow_10_361" route="10" begin="60" end="120" vehsPerHour="696" departSpeed="desired" type="hdv"/>
    <flow id="flow_23_361" route="23" begin="60" end="120" vehsPerHour="2556" departSpeed="desired" type="hdv"/>
    <flow id="flow_25_361" route="25" begin="60" end="120" vehsPerHour="2628" departSpeed="desired" type="hdv"/>
    <flow id="flow_3_361" route="3" begin="60" end="120" vehsPerHour="125" departSpeed="desired" type="hdv"/>
    <flow id="flow_4_361" route="4" begin="60" end="120" vehsPerHour="125" departSpeed="desired" type="hdv"/>
    <flow id="flow_13_361" route="13" begin="60" end="120" vehsPerHour="512" departSpeed="desired" type="hdv"/>
    <flow id="flow_21_361" route="21" begin="60" end="120" vehsPerHour="527" departSpeed="desired" type="hdv"/>
    <flow id="flow_11_361" route="11" begin="60" end="120" vehsPerHour="370" departSpeed="desired" type="hdv"/>
    <flow id="flow_12_361" route="12" begin="60" end="120" vehsPerHour="370" departSpeed="desired" type="hdv"/>
    <flow id="flow_19_361" route="19" begin="60" end="120" vehsPerHour="385" departSpeed="desired" type="hdv"/>
    <flow id="flow_20_361" route="20" begin="60" end="120" vehsPerHour="385" departSpeed="desired" type="hdv"/>
    <flow id="flow_1_362" route="1" begin="120" end="180" vehsPerHour="216" departSpeed="desired" type="hdv"/>
    <flow id="flow_9_362" route="9" begin="120" end="180" vehsPerHour="840" departSpeed="desired" type="hdv"/>
    <flow id="flow_10_362" route="10" begin="120" end="180" vehsPerHour="840" departSpeed="desired" type="hdv"/>
    <flow id="flow_23_362" route="23" begin="120" end="180" vehsPerHour="2340" departSpeed="desired" type="hdv"/>
    <flow id="flow_25_362" route="25" begin="120" end="180" vehsPerHour="2376" departSpeed="desired" type="hdv"/>
    <flow id="flow_3_362" route="3" begin="120" end="180" vehsPerHour="130" departSpeed="desired" type="hdv"/>
    <flow id="flow_4_362" route="4" begin="120" end="180" vehsPerHour="130" departSpeed="desired" type="hdv"/>
    <flow id="flow_13_362" route="13" begin="120" end="180" vehsPerHour="442" departSpeed="desired" type="hdv"/>
    <flow id="flow_21_362" route="21" begin="120" end="180" vehsPerHour="450" departSpeed="desired" type="hdv"/>
    <flow id="flow_11_362" route="11" begin="120" end="180" vehsPerHour="277" departSpeed="desired" type="hdv"/>
    <flow id="flow_12_362" route="12" begin="120" end="180" vehsPerHour="277" departSpeed="desired" type="hdv"/>
    <flow id="flow_19_362" route="19" begin="120" end="180" vehsPerHour="285" departSpeed="desired" type="hdv"/>
    <flow id="flow_20_362" route="20" begin="120" end="180" vehsPerHour="285" departSpeed="desired" type="hdv"/>
    <flow id="flow_3_363" route="3" begin="180" end="240" vehsPerHour="152" departSpeed="desired" type="hdv"/>
    <flow id="flow_4_363" route="4" begin="180" end="240" vehsPerHour="152" departSpeed="desired" type="hdv"/>
    <flow id="flow_9_363" route="9" begin="180" end="240" vehsPerHour="732" departSpeed="desired" type="hdv"/>
    <flow id="flow_10_363" route="10" begin="180" end="240" vehsPerHour="732" departSpeed="desired" type="hdv"/>
    <flow id="flow_13_363" route="13" begin="180" end="240" vehsPerHour="520" departSpeed="desired" type="hdv"/>
    <flow id="flow_21_363" route="21" begin="180" end="240" vehsPerHour="530" departSpeed="desired" type="hdv"/>
    <flow id="flow_23_363" route="23" begin="180" end="240" vehsPerHour="2496" departSpeed="desired" type="hdv"/>
    <flow id="flow_25_363" route="25" begin="180" end="240" vehsPerHour="2544" departSpeed="desired" type="hdv"/>
    <flow id="flow_11_363" route="11" begin="180" end="240" vehsPerHour="330" departSpeed="desired" type="hdv"/>
    <flow id="flow_12_363" route="12" begin="180" end="240" vehsPerHour="330" departSpeed="desired" type="hdv"/>
    <flow id="flow_19_363" route="19" begin="180" end="240" vehsPerHour="340" departSpeed="desired" type="hdv"/>
    <flow id="flow_20_363" route="20" begin="180" end="240" vehsPerHour="340" departSpeed="desired" type="hdv"/>
    <flow id="flow_1_364" route="1" begin="240" end="300" vehsPerHour="360" departSpeed="desired" type="hdv"/>
    <flow id="flow_9_364" route="9" begin="240" end="300" vehsPerHour="1224" departSpeed="desired" type="hdv"/>
    <flow id="flow_10_364" route="10" begin="240" end="300" vehsPerHour="1224" departSpeed="desired" type="hdv"/>
    <flow id="flow_23_364" route="23" begin="240" end="300" vehsPerHour="3156" departSpeed="desired" type="hdv"/>
    <flow id="flow_25_364" route="25" begin="240" end="300" vehsPerHour="3216" departSpeed="desired" type="hdv"/>
    <flow id="flow_3_364" route="3" begin="240" end="300" vehsPerHour="180" departSpeed="desired" type="hdv"/>
    <flow id="flow_4_364" route="4" begin="240" end="300" vehsPerHour="180" departSpeed="desired" type="hdv"/>
    <flow id="flow_13_364" route="13" begin="240" end="300" vehsPerHour="582" departSpeed="desired" type="hdv"/>
    <flow id="flow_21_364" route="21" begin="240" end="300" vehsPerHour="595" departSpeed="desired" type="hdv"/>
    <flow id="flow_11_364" route="11" begin="240" end="300" vehsPerHour="347" departSpeed="desired" type="hdv"/>
    <flow id="flow_12_364" route="12" begin="240" end="300" vehsPerHour="347" departSpeed="desired" type="hdv"/>
    <flow id="flow_19_364" route="19" begin="240" end="300" vehsPerHour="360" departSpeed="desired" type="hdv"/>
    <flow id="flow_20_364" route="20" begin="240" end="300" vehsPerHour="360" departSpeed="desired" type="hdv"/>
    <flow id="flow_1_365" route="1" begin="300" end="360" vehsPerHour="792" departSpeed="desired" type="hdv"/>
    <flow id="flow_9_365" route="9" begin="300" end="360" vehsPerHour="1620" departSpeed="desired" type="hdv"/>
    <flow id="flow_10_365" route="10" begin="300" end="360" vehsPerHour="1620" departSpeed="desired" type="hdv"/>
    <flow id="flow_23_365" route="23" begin="300" end="360" vehsPerHour="3204" departSpeed="desired" type="hdv"/>
    <flow id="flow_25_365" route="25" begin="300" end="360" vehsPerHour="3216" departSpeed="desired" type="hdv"/>
    <flow id="flow_3_365" route="3" begin="300" end="360" vehsPerHour="172" departSpeed="desired" type="hdv"/>
    <flow id="flow_4_365" route="4" begin="300" end="360" vehsPerHour="172" departSpeed="desired" type="hdv"/>
    <flow id="flow_13_365" route="13" begin="300" end="360" vehsPerHour="502" departSpeed="desired" type="hdv"/>
    <flow id="flow_21_365" route="21" begin="300" end="360" vehsPerHour="505" departSpeed="desired" type="hdv"/>
    <flow id="flow_11_365" route="11" begin="300" end="360" vehsPerHour="282" departSpeed="desired" type="hdv"/>
    <flow id="flow_12_365" route="12" begin="300" end="360" vehsPerHour="282" departSpeed="desired" type="hdv"/>
    <flow id="flow_19_365" route="19" begin="300" end="360" vehsPerHour="285" departSpeed="desired" type="hdv"/>
    <flow id="flow_20_365" route="20" begin="300" end="360" vehsPerHour="285" departSpeed="desired" type="hdv"/>
    <flow id="flow_1_366" route="1" begin="360" end="420" vehsPerHour="972" departSpeed="desired" type="hdv"/>
    <flow id="flow_9_366" route="9" begin="360" end="420" vehsPerHour="1584" departSpeed="desired" type="hdv"/>
    <flow id="flow_10_366" route="10" begin="360" end="420" vehsPerHour="1584" departSpeed="desired" type="hdv"/>
    <flow id="flow_23_366" route="23" begin="360" end="420" vehsPerHour="3516" departSpeed="desired" type="hdv"/>
    <flow id="flow_25_366" route="25" begin="360" end="420" vehsPerHour="3612" departSpeed="desired" type="hdv"/>
    <flow id="flow_3_366" route="3" begin="360" end="420" vehsPerHour="127" departSpeed="desired" type="hdv"/>
    <flow id="flow_4_366" route="4" begin="360" end="420" vehsPerHour="127" departSpeed="desired" type="hdv"/>
    <flow id="flow_13_366" route="13" begin="360" end="420" vehsPerHour="530" departSpeed="desired" type="hdv"/>
    <flow id="flow_21_366" route="21" begin="360" end="420" vehsPerHour="550" departSpeed="desired" type="hdv"/>
    <flow id="flow_11_366" route="11" begin="360" end="420" vehsPerHour="355" departSpeed="desired" type="hdv"/>
    <flow id="flow_12_366" route="12" begin="360" end="420" vehsPerHour="355" departSpeed="desired" type="hdv"/>
    <flow id="flow_19_366" route="19" begin="360" end="420" vehsPerHour="375" departSpeed="desired" type="hdv"/>
    <flow id="flow_20_366" route="20" begin="360" end="420" vehsPerHour="375" departSpeed="desired" type="hdv"/>
    <flow id="flow_1_367" route="1" begin="420" end="480" vehsPerHour="1488" departSpeed="desired" type="hdv"/>
    <flow id="flow_9_367" route="9" begin="420" end="480" vehsPerHour="2436" departSpeed="desired" type="hdv"/>
    <flow id="flow_10_367" route="10" begin="420" end="480" vehsPerHour="2436" departSpeed="desired" type="hdv"/>
    <flow id="flow_23_367" route="23" begin="420" end="480" vehsPerHour="4044" departSpeed="desired" type="hdv"/>
    <flow id="flow_25_367" route="25" begin="420" end="480" vehsPerHour="4452" departSpeed="desired" type="hdv"/>
    <flow id="flow_3_367" route="3" begin="420" end="480" vehsPerHour="197" departSpeed="desired" type="hdv"/>
    <flow id="flow_4_367" route="4" begin="420" end="480" vehsPerHour="197" departSpeed="desired" type="hdv"/>
    <flow id="flow_13_367" route="13" begin="420" end="480" vehsPerHour="532" departSpeed="desired" type="hdv"/>
    <flow id="flow_21_367" route="21" begin="420" end="480" vehsPerHour="617" departSpeed="desired" type="hdv"/>
    <flow id="flow_11_367" route="11" begin="420" end="480" vehsPerHour="280" departSpeed="desired" type="hdv"/>
    <flow id="flow_12_367" route="12" begin="420" end="480" vehsPerHour="280" departSpeed="desired" type="hdv"/>
    <flow id="flow_19_367" route="19" begin="420" end="480" vehsPerHour="365" departSpeed="desired" type="hdv"/>
    <flow id="flow_20_367" route="20" begin="420" end="480" vehsPerHour="365" departSpeed="desired" type="hdv"/>
    <flow id="flow_1_368" route="1" begin="480" end="540" vehsPerHour="1608" departSpeed="desired" type="hdv"/>
    <flow id="flow_9_368" route="9" begin="480" end="540" vehsPerHour="2340" departSpeed="desired" type="hdv"/>
    <flow id="flow_10_368" route="10" begin="480" end="540" vehsPerHour="2340" departSpeed="desired" type="hdv"/>
    <flow id="flow_23_368" route="23" begin="480" end="540" vehsPerHour="4392" departSpeed="desired" type="hdv"/>
    <flow id="flow_25_368" route="25" begin="480" end="540" vehsPerHour="5100" departSpeed="desired" type="hdv"/>
    <flow id="flow_3_368" route="3" begin="480" end="540" vehsPerHour="152" departSpeed="desired" type="hdv"/>
    <flow id="flow_4_368" route="4" begin="480" end="540" vehsPerHour="152" departSpeed="desired" type="hdv"/>
    <flow id="flow_13_368" route="13" begin="480" end="540" vehsPerHour="580" departSpeed="desired" type="hdv"/>
    <flow id="flow_21_368" route="21" begin="480" end="540" vehsPerHour="727" departSpeed="desired" type="hdv"/>
    <flow id="flow_11_368" route="11" begin="480" end="540" vehsPerHour="370" departSpeed="desired" type="hdv"/>
    <flow id="flow_12_368" route="12" begin="480" end="540" vehsPerHour="370" departSpeed="desired" type="hdv"/>
    <flow id="flow_19_368" route="19" begin="480" end="540" vehsPerHour="517" departSpeed="desired" type="hdv"/>
    <flow id="flow_20_368" route="20" begin="480" end="540" vehsPerHour="517" departSpeed="desired" type="hdv"/>
    <flow id="flow_1_369" route="1" begin="540" end="600" vehsPerHour="1896" departSpeed="desired" type="hdv"/>
    <flow id="flow_9_369" route="9" begin="540" end="600" vehsPerHour="2484" departSpeed="desired" type="hdv"/>
    <flow id="flow_10_369" route="10" begin="540" end="600" vehsPerHour="2484" departSpeed="desired" type="hdv"/>
    <flow id="flow_23_369" route="23" begin="540" end="600" vehsPerHour="5880" departSpeed="desired" type="hdv"/>
    <flow id="flow_25_369" route="25" begin="540" end="600" vehsPerHour="6444" departSpeed="desired" type="hdv"/>
    <flow id="flow_3_369" route="3" begin="540" end="600" vehsPerHour="122" departSpeed="desired" type="hdv"/>
    <flow id="flow_4_369" route="4" begin="540" end="600" vehsPerHour="122" departSpeed="desired" type="hdv"/>
    <flow id="flow_13_369" route="13" begin="540" end="600" vehsPerHour="830" departSpeed="desired" type="hdv"/>
    <flow id="flow_21_369" route="21" begin="540" end="600" vehsPerHour="947" departSpeed="desired" type="hdv"/>
    <flow id="flow_11_369" route="11" begin="540" end="600" vehsPerHour="650" departSpeed="desired" type="hdv"/>
    <flow id="flow_12_369" route="12" begin="540" end="600" vehsPerHour="650" departSpeed="desired" type="hdv"/>
    <flow id="flow_19_369" route="19" begin="540" end="600" vehsPerHour="767" departSpeed="desired" type="hdv"/>
    <flow id="flow_20_369" route="20" begin="540" end="600" vehsPerHour="767" departSpeed="desired" type="hdv"/>
    <flow id="flow_1_370" route="1" begin="600" end="660" vehsPerHour="1848" departSpeed="desired" type="hdv"/>
    <flow id="flow_9_370" route="9" begin="600" end="660" vehsPerHour="2928" departSpeed="desired" type="hdv"/>
    <flow id="flow_10_370" route="10" begin="600" end="660" vehsPerHour="2928" departSpeed="desired" type="hdv"/>
    <flow id="flow_23_370" route="23" begin="600" end="660" vehsPerHour="7500" departSpeed="desired" type="hdv"/>
    <flow id="flow_25_370" route="25" begin="600" end="660" vehsPerHour="8160" departSpeed="desired" type="hdv"/>
    <flow id="flow_3_370" route="3" begin="600" end="660" vehsPerHour="225" departSpeed="desired" type="hdv"/>
    <flow id="flow_4_370" route="4" begin="600" end="660" vehsPerHour="225" departSpeed="desired" type="hdv"/>
    <flow id="flow_13_370" route="13" begin="600" end="660" vehsPerHour="1177" departSpeed="desired" type="hdv"/>
    <flow id="flow_21_370" route="21" begin="600" end="660" vehsPerHour="1315" departSpeed="desired" type="hdv"/>
    <flow id="flow_11_370" route="11" begin="600" end="660" vehsPerHour="807" departSpeed="desired" type="hdv"/>
    <flow id="flow_12_370" route="12" begin="600" end="660" vehsPerHour="807" departSpeed="desired" type="hdv"/>
    <flow id="flow_19_370" route="19" begin="600" end="660" vehsPerHour="945" departSpeed="desired" type="hdv"/>
    <flow id="flow_20_370" route="20" begin="600" end="660" vehsPerHour="945" departSpeed="desired" type="hdv"/>
    <flow id="flow_1_371" route="1" begin="660" end="720" vehsPerHour="2844" departSpeed="desired" type="hdv"/>
    <flow id="flow_9_371" route="9" begin="660" end="720" vehsPerHour="4140" departSpeed="desired" type="hdv"/>
    <flow id="flow_10_371" route="10" begin="660" end="720" vehsPerHour="4140" departSpeed="desired" type="hdv"/>
    <flow id="flow_23_371" route="23" begin="660" end="720" vehsPerHour="8508" departSpeed="desired" type="hdv"/>
    <flow id="flow_25_371" route="25" begin="660" end="720" vehsPerHour="9312" departSpeed="desired" type="hdv"/>
    <flow id="flow_3_371" route="3" begin="660" end="720" vehsPerHour="270" departSpeed="desired" type="hdv"/>
    <flow id="flow_4_371" route="4" begin="660" end="720" vehsPerHour="270" departSpeed="desired" type="hdv"/>
    <flow id="flow_13_371" route="13" begin="660" end="720" vehsPerHour="1180" departSpeed="desired" type="hdv"/>
    <flow id="flow_21_371" route="21" begin="660" end="720" vehsPerHour="1347" departSpeed="desired" type="hdv"/>
    <flow id="flow_11_371" route="11" begin="660" end="720" vehsPerHour="765" departSpeed="desired" type="hdv"/>
    <flow id="flow_12_371" route="12" begin="660" end="720" vehsPerHour="765" departSpeed="desired" type="hdv"/>
    <flow id="flow_19_371" route="19" begin="660" end="720" vehsPerHour="932" departSpeed="desired" type="hdv"/>
    <flow id="flow_20_371" route="20" begin="660" end="720" vehsPerHour="932" departSpeed="desired" type="hdv"/>
    <flow id="flow_1_372" route="1" begin="720" end="780" vehsPerHour="3084" departSpeed="desired" type="hdv"/>
    <flow id="flow_9_372" route="9" begin="720" end="780" vehsPerHour="4140" departSpeed="desired" type="hdv"/>
    <flow id="flow_10_372" route="10" begin="720" end="780" vehsPerHour="4140" departSpeed="desired" type="hdv"/>
    <flow id="flow_23_372" route="23" begin="720" end="780" vehsPerHour="8592" departSpeed="desired" type="hdv"/>
    <flow id="flow_25_372" route="25" begin="720" end="780" vehsPerHour="9444" departSpeed="desired" type="hdv"/>
    <flow id="flow_3_372" route="3" begin="720" end="780" vehsPerHour="220" departSpeed="desired" type="hdv"/>
    <flow id="flow_4_372" route="4" begin="720" end="780" vehsPerHour="220" departSpeed="desired" type="hdv"/>
    <flow id="flow_13_372" route="13" begin="720" end="780" vehsPerHour="1147" departSpeed="desired" type="hdv"/>
    <flow id="flow_21_372" route="21" begin="720" end="780" vehsPerHour="1325" departSpeed="desired" type="hdv"/>
    <flow id="flow_11_372" route="11" begin="720" end="780" vehsPerHour="757" departSpeed="desired" type="hdv"/>
    <flow id="flow_12_372" route="12" begin="720" end="780" vehsPerHour="757" departSpeed="desired" type="hdv"/>
    <flow id="flow_19_372" route="19" begin="720" end="780" vehsPerHour="935" departSpeed="desired" type="hdv"/>
    <flow id="flow_20_372" route="20" begin="720" end="780" vehsPerHour="935" departSpeed="desired" type="hdv"/>
    <flow id="flow_1_373" route="1" begin="780" end="840" vehsPerHour="2952" departSpeed="desired" type="hdv"/>
    <flow id="flow_9_373" route="9" begin="780" end="840" vehsPerHour="3996" departSpeed="desired" type="hdv"/>
    <flow id="flow_10_373" route="10" begin="780" end="840" vehsPerHour="3996" departSpeed="desired" type="hdv"/>
    <flow id="flow_23_373" route="23" begin="780" end="840" vehsPerHour="9444" departSpeed="desired" type="hdv"/>
    <flow id="flow_25_373" route="25" begin="780" end="840" vehsPerHour="10368" departSpeed="desired" type="hdv"/>
    <flow id="flow_3_373" route="3" begin="780" end="840" vehsPerHour="217" departSpeed="desired" type="hdv"/>
    <flow id="flow_4_373" route="4" begin="780" end="840" vehsPerHour="217" departSpeed="desired" type="hdv"/>
    <flow id="flow_13_373" route="13" begin="780" end="840" vehsPerHour="1352" departSpeed="desired" type="hdv"/>
    <flow id="flow_21_373" route="21" begin="780" end="840" vehsPerHour="1545" departSpeed="desired" type="hdv"/>
    <flow id="flow_11_373" route="11" begin="780" end="840" vehsPerHour="977" departSpeed="desired" type="hdv"/>
    <flow id="flow_12_373" route="12" begin="780" end="840" vehsPerHour="977" departSpeed="desired" type="hdv"/>
    <flow id="flow_19_373" route="19" begin="780" end="840" vehsPerHour="1170" departSpeed="desired" type="hdv"/>
    <flow id="flow_20_373" route="20" begin="780" end="840" vehsPerHour="1170" departSpeed="desired" type="hdv"/>
    <flow id="flow_1_374" route="1" begin="840" end="900" vehsPerHour="2676" departSpeed="desired" type="hdv"/>
    <flow id="flow_9_374" route="9" begin="840" end="900" vehsPerHour="3636" departSpeed="desired" type="hdv"/>
    <flow id="flow_10_374" route="10" begin="840" end="900" vehsPerHour="3636" departSpeed="desired" type="hdv"/>
    <flow id="flow_23_374" route="23" begin="840" end="900" vehsPerHour="9528" departSpeed="desired" type="hdv"/>
    <flow id="flow_25_374" route="25" begin="840" end="900" vehsPerHour="10416" departSpeed="desired" type="hdv"/>
    <flow id="flow_3_374" route="3" begin="840" end="900" vehsPerHour="200" departSpeed="desired" type="hdv"/>
    <flow id="flow_4_374" route="4" begin="840" end="900" vehsPerHour="200" departSpeed="desired" type="hdv"/>
    <flow id="flow_13_374" route="13" begin="840" end="900" vehsPerHour="1427" departSpeed="desired" type="hdv"/>
    <flow id="flow_21_374" route="21" begin="840" end="900" vehsPerHour="1612" departSpeed="desired" type="hdv"/>
    <flow id="flow_11_374" route="11" begin="840" end="900" vehsPerHour="1062" departSpeed="desired" type="hdv"/>
    <flow id="flow_12_374" route="12" begin="840" end="900" vehsPerHour="1062" departSpeed="desired" type="hdv"/>
    <flow id="flow_19_374" route="19" begin="840" end="900" vehsPerHour="1247" departSpeed="desired" type="hdv"/>
    <flow id="flow_20_374" route="20" begin="840" end="900" vehsPerHour="1247" departSpeed="desired" type="hdv"/>
    <flow id="flow_1_375" route="1" begin="900" end="960" vehsPerHour="2640" departSpeed="desired" type="hdv"/>
    <flow id="flow_9_375" route="9" begin="900" end="960" vehsPerHour="3804" departSpeed="desired" type="hdv"/>
    <flow id="flow_10_375" route="10" begin="900" end="960" vehsPerHour="3804" departSpeed="desired" type="hdv"/>
    <flow id="flow_23_375" route="23" begin="900" end="960" vehsPerHour="9876" departSpeed="desired" type="hdv"/>
    <flow id="flow_25_375" route="25" begin="900" end="960" vehsPerHour="10644" departSpeed="desired" type="hdv"/>
    <flow id="flow_3_375" route="3" begin="900" end="960" vehsPerHour="242" departSpeed="desired" type="hdv"/>
    <flow id="flow_4_375" route="4" begin="900" end="960" vehsPerHour="242" departSpeed="desired" type="hdv"/>
    <flow id="flow_13_375" route="13" begin="900" end="960" vehsPerHour="1507" departSpeed="desired" type="hdv"/>
    <flow id="flow_21_375" route="21" begin="900" end="960" vehsPerHour="1667" departSpeed="desired" type="hdv"/>
    <flow id="flow_11_375" route="11" begin="900" end="960" vehsPerHour="1055" departSpeed="desired" type="hdv"/>
    <flow id="flow_12_375" route="12" begin="900" end="960" vehsPerHour="1055" departSpeed="desired" type="hdv"/>
    <flow id="flow_19_375" route="19" begin="900" end="960" vehsPerHour="1215" departSpeed="desired" type="hdv"/>
    <flow id="flow_20_375" route="20" begin="900" end="960" vehsPerHour="1215" departSpeed="desired" type="hdv"/>
    <flow id="flow_1_376" route="1" begin="960" end="1020" vehsPerHour="3108" departSpeed="desired" type="hdv"/>
    <flow id="flow_9_376" route="9" begin="960" end="1020" vehsPerHour="4572" departSpeed="desired" type="hdv"/>
    <flow id="flow_10_376" route="10" begin="960" end="1020" vehsPerHour="4572" departSpeed="desired" type="hdv"/>
    <flow id="flow_23_376" route="23" begin="960" end="1020" vehsPerHour="10992" departSpeed="desired" type="hdv"/>
    <flow id="flow_25_376" route="25" begin="960" end="1020" vehsPerHour="11940" departSpeed="desired" type="hdv"/>
    <flow id="flow_3_376" route="3" begin="960" end="1020" vehsPerHour="305" departSpeed="desired" type="hdv"/>
    <flow id="flow_4_376" route="4" begin="960" end="1020" vehsPerHour="305" departSpeed="desired" type="hdv"/>
    <flow id="flow_13_376" route="13" begin="960" end="1020" vehsPerHour="1642" departSpeed="desired" type="hdv"/>
    <flow id="flow_21_376" route="21" begin="960" end="1020" vehsPerHour="1840" departSpeed="desired" type="hdv"/>
    <flow id="flow_11_376" route="11" begin="960" end="1020" vehsPerHour="1140" departSpeed="desired" type="hdv"/>
    <flow id="flow_12_376" route="12" begin="960" end="1020" vehsPerHour="1140" departSpeed="desired" type="hdv"/>
    <flow id="flow_19_376" route="19" begin="960" end="1020" vehsPerHour="1337" departSpeed="desired" type="hdv"/>
    <flow id="flow_20_376" route="20" begin="960" end="1020" vehsPerHour="1337" departSpeed="desired" type="hdv"/>
    <flow id="flow_1_377" route="1" begin="1020" end="1080" vehsPerHour="2676" departSpeed="desired" type="hdv"/>
    <flow id="flow_9_377" route="9" begin="1020" end="1080" vehsPerHour="3948" departSpeed="desired" type="hdv"/>
    <flow id="flow_10_377" route="10" begin="1020" end="1080" vehsPerHour="3948" departSpeed="desired" type="hdv"/>
    <flow id="flow_23_377" route="23" begin="1020" end="1080" vehsPerHour="10956" departSpeed="desired" type="hdv"/>
    <flow id="flow_25_377" route="25" begin="1020" end="1080" vehsPerHour="12012" departSpeed="desired" type="hdv"/>
    <flow id="flow_3_377" route="3" begin="1020" end="1080" vehsPerHour="265" departSpeed="desired" type="hdv"/>
    <flow id="flow_4_377" route="4" begin="1020" end="1080" vehsPerHour="265" departSpeed="desired" type="hdv"/>
    <flow id="flow_13_377" route="13" begin="1020" end="1080" vehsPerHour="1725" departSpeed="desired" type="hdv"/>
    <flow id="flow_21_377" route="21" begin="1020" end="1080" vehsPerHour="1945" departSpeed="desired" type="hdv"/>
    <flow id="flow_11_377" route="11" begin="1020" end="1080" vehsPerHour="1222" departSpeed="desired" type="hdv"/>
    <flow id="flow_12_377" route="12" begin="1020" end="1080" vehsPerHour="1222" departSpeed="desired" type="hdv"/>
    <flow id="flow_19_377" route="19" begin="1020" end="1080" vehsPerHour="1442" departSpeed="desired" type="hdv"/>
    <flow id="flow_20_377" route="20" begin="1020" end="1080" vehsPerHour="1442" departSpeed="desired" type="hdv"/>
    <flow id="flow_1_378" route="1" begin="1080" end="1140" vehsPerHour="3288" departSpeed="desired" type="hdv"/>
    <flow id="flow_9_378" route="9" begin="1080" end="1140" vehsPerHour="4020" departSpeed="desired" type="hdv"/>
    <flow id="flow_10_378" route="10" begin="1080" end="1140" vehsPerHour="4020" departSpeed="desired" type="hdv"/>
    <flow id="flow_23_378" route="23" begin="1080" end="1140" vehsPerHour="11088" departSpeed="desired" type="hdv"/>
    <flow id="flow_25_378" route="25" begin="1080" end="1140" vehsPerHour="12120" departSpeed="desired" type="hdv"/>
    <flow id="flow_3_378" route="3" begin="1080" end="1140" vehsPerHour="152" departSpeed="desired" type="hdv"/>
    <flow id="flow_4_378" route="4" begin="1080" end="1140" vehsPerHour="152" departSpeed="desired" type="hdv"/>
    <flow id="flow_13_378" route="13" begin="1080" end="1140" vehsPerHour="1625" departSpeed="desired" type="hdv"/>
    <flow id="flow_21_378" route="21" begin="1080" end="1140" vehsPerHour="1840" departSpeed="desired" type="hdv"/>
    <flow id="flow_11_378" route="11" begin="1080" end="1140" vehsPerHour="1260" departSpeed="desired" type="hdv"/>
    <flow id="flow_12_378" route="12" begin="1080" end="1140" vehsPerHour="1260" departSpeed="desired" type="hdv"/>
    <flow id="flow_19_378" route="19" begin="1080" end="1140" vehsPerHour="1475" departSpeed="desired" type="hdv"/>