<?xml version='1.0' encoding='utf-8'?>
<routes>
    <vType id="hdv" length="4.3" carFollowModel="IDM" emergencyDecel="4.0" cf="{'maxSpeed': 30.55, 'minGap': 2.5, 'accel': 1.5, 'decel': 2, 'tau': 1.4, 'emergencyDecel': 4.0}" lc="{'laneChangeModel': 'SL2015', 'lcSublane': 1.0, 'latAlignment': 'arbitrary', 'maxSpeedLat': 1.4, 'lcAccelLat': 0.7, 'minGapLat': 0.4, 'lcStrategic': 10.0, 'lcCooperative': 1.0, 'lcPushy': 0.4, 'lcImpatience': 0.9, 'lcSpeedGain': 1.5, 'lcKeepRight': 0.0, 'lcOvertakeRight': 0.0}" />

    <route id="1" edges="277208926 634155175-AddedOnRampEdge 634155175" />
    <route id="2" edges="27828382 27828382-AddedOffRampEdge 180933397" />
    <route id="3" edges="19441652#0 19441652#1-AddedOnRampEdge 19441652#1 992666043 19442635" />
    <route id="4" edges="1016548847 19441652#1-AddedOnRampEdge 19441652#1 992666043 19442635" />
    <route id="9" edges="19441652#0 19441652#1-AddedOnRampEdge 19441652#1 992666043 992666042 634155175-AddedOnRampEdge 634155175" />
    <route id="10" edges="1016548847 19441652#1-AddedOnRampEdge 19441652#1 992666043 992666042 634155175-AddedOnRampEdge 634155175" />
    <route id="11" edges="1070403831#1-AddedOnRampEdge 977008894 977008893 977008892 1138588478 1138588478-AddedOffRampEdge 1040737038" />
    <route id="12" edges="1070403831#1-AddedOnRampEdge 977008894 977008893 977008892 1138588478 1138588478-AddedOffRampEdge 19440902" />
    <route id="13" edges="1070403831#1-AddedOnRampEdge 977008894 977008893 977008892 977008891 992666043 19442635" />
    <route id="19" edges="27828382 27828382-AddedOffRampEdge 974949114 977008894 977008893 977008892 1138588478 1138588478-AddedOffRampEdge 1040737038" />
    <route id="20" edges="27828382 27828382-AddedOffRampEdge 974949114 977008894 977008893 977008892 1138588478 1138588478-AddedOffRampEdge 19440902" />
    <route id="21" edges="27828382 27828382-AddedOffRampEdge 974949114 977008894 977008893 977008892 977008891 992666043 19442635" />
    <route id="23" edges="1070403831#1-AddedOnRampEdge 977008894 977008893 977008892 977008891 992666043 992666042 634155175-AddedOnRampEdge 634155175" />
    <route id="25" edges="27828382 27828382-AddedOffRampEdge 974949114 977008894 977008893 977008892 977008891 992666043 992666042 634155175-AddedOnRampEdge 634155175" />
    <flow id="flow_1_390" route="1" begin="0.0" end="60.0" vehsPerHour="512" departSpeed="desired" type="hdv" />
    <flow id="flow_9_390" route="9" begin="0.0" end="60.0" vehsPerHour="720" departSpeed="desired" type="hdv" />
    <flow id="flow_10_390" route="10" begin="0.0" end="60.0" vehsPerHour="720" departSpeed="desired" type="hdv" />
    <flow id="flow_23_390" route="23" begin="0.0" end="60.0" vehsPerHour="1790" departSpeed="desired" type="hdv" />
    <flow id="flow_25_390" route="25" begin="0.0" end="60.0" vehsPerHour="11112" departSpeed="desired" type="hdv" />
    <flow id="flow_3_390" route="3" begin="0.0" end="60.0" vehsPerHour="208" departSpeed="desired" type="hdv" />
    <flow id="flow_4_390" route="4" begin="0.0" end="60.0" vehsPerHour="208" departSpeed="desired" type="hdv" />
    <flow id="flow_13_390" route="13" begin="0.0" end="60.0" vehsPerHour="1278" departSpeed="desired" type="hdv" />
    <flow id="flow_21_390" route="21" begin="0.0" end="60.0" vehsPerHour="1340" departSpeed="desired" type="hdv" />
    <flow id="flow_11_390" route="11" begin="0.0" end="60.0" vehsPerHour="890" departSpeed="desired" type="hdv" />
    <flow id="flow_12_390" route="12" begin="0.0" end="60.0" vehsPerHour="890" departSpeed="desired" type="hdv" />
    <flow id="flow_19_390" route="19" begin="0.0" end="60.0" vehsPerHour="952" departSpeed="desired" type="hdv" />
    <flow id="flow_20_390" route="20" begin="0.0" end="60.0" vehsPerHour="952" departSpeed="desired" type="hdv" />
    <flow id="flow_1_391" route="1" begin="60.0" end="120.0" vehsPerHour="442" departSpeed="desired" type="hdv" />
    <flow id="flow_9_391" route="9" begin="60.0" end="120.0" vehsPerHour="686" departSpeed="desired" type="hdv" />
    <flow id="flow_10_391" route="10" begin="60.0" end="120.0" vehsPerHour="686" departSpeed="desired" type="hdv" />
    <flow id="flow_23_391" route="23" begin="60.0" end="120.0" vehsPerHour="1804" departSpeed="desired" type="hdv" />
    <flow id="flow_25_391" route="25" begin="60.0" end="120.0" vehsPerHour="11448" departSpeed="desired" type="hdv" />
    <flow id="flow_3_391" route="3" begin="60.0" end="120.0" vehsPerHour="244" departSpeed="desired" type="hdv" />
    <flow id="flow_4_391" route="4" begin="60.0" end="120.0" vehsPerHour="244" departSpeed="desired" type="hdv" />
    <flow id="flow_13_391" route="13" begin="60.0" end="120.0" vehsPerHour="1362" departSpeed="desired" type="hdv" />
    <flow id="flow_21_391" route="21" begin="60.0" end="120.0" vehsPerHour="1466" departSpeed="desired" type="hdv" />
    <flow id="flow_11_391" route="11" begin="60.0" end="120.0" vehsPerHour="930" departSpeed="desired" type="hdv" />
    <flow id="flow_12_391" route="12" begin="60.0" end="120.0" vehsPerHour="930" departSpeed="desired" type="hdv" />
    <flow id="flow_19_391" route="19" begin="60.0" end="120.0" vehsPerHour="1034" departSpeed="desired" type="hdv" />
    <flow id="flow_20_391" route="20" begin="60.0" end="120.0" vehsPerHour="1034" departSpeed="desired" type="hdv" />
    <flow id="flow_1_392" route="1" begin="120.0" end="180.0" vehsPerHour="428" departSpeed="desired" type="hdv" />
    <flow id="flow_9_392" route="9" begin="120.0" end="180.0" vehsPerHour="614" departSpeed="desired" type="hdv" />
    <flow id="flow_10_392" route="10" begin="120.0" end="180.0" vehsPerHour="614" departSpeed="desired" type="hdv" />
    <flow id="flow_23_392" route="23" begin="120.0" end="180.0" vehsPerHour="1748" departSpeed="desired" type="hdv" />
    <flow id="flow_25_392" route="25" begin="120.0" end="180.0" vehsPerHour="11136" departSpeed="desired" type="hdv" />
    <flow id="flow_3_392" route="3" begin="120.0" end="180.0" vehsPerHour="186" departSpeed="desired" type="hdv" />
    <flow id="flow_4_392" route="4" begin="120.0" end="180.0" vehsPerHour="186" departSpeed="desired" type="hdv" />
    <flow id="flow_13_392" route="13" begin="120.0" end="180.0" vehsPerHour="1320" departSpeed="desired" type="hdv" />
    <flow id="flow_21_392" route="21" begin="120.0" end="180.0" vehsPerHour="1428" departSpeed="desired" type="hdv" />
    <flow id="flow_11_392" route="11" begin="120.0" end="180.0" vehsPerHour="986" departSpeed="desired" type="hdv" />
    <flow id="flow_12_392" route="12" begin="120.0" end="180.0" vehsPerHour="986" departSpeed="desired" type="hdv" />
    <flow id="flow_19_392" route="19" begin="120.0" end="180.0" vehsPerHour="1094" departSpeed="desired" type="hdv" />
    <flow id="flow_20_392" route="20" begin="120.0" end="180.0" vehsPerHour="1094" departSpeed="desired" type="hdv" />
    <flow id="flow_1_393" route="1" begin="180.0" end="240.0" vehsPerHour="514" departSpeed="desired" type="hdv" />
    <flow id="flow_9_393" route="9" begin="180.0" end="240.0" vehsPerHour="646" departSpeed="desired" type="hdv" />
    <flow id="flow_10_393" route="10" begin="180.0" end="240.0" vehsPerHour="646" departSpeed="desired" type="hdv" />
    <flow id="flow_23_393" route="23" begin="180.0" end="240.0" vehsPerHour="1828" departSpeed="desired" type="hdv" />
    <flow id="flow_25_393" route="25" begin="180.0" end="240.0" vehsPerHour="11748" departSpeed="desired" type="hdv" />
    <flow id="flow_3_393" route="3" begin="180.0" end="240.0" vehsPerHour="132" departSpeed="desired" type="hdv" />
    <flow id="flow_4_393" route="4" begin="180.0" end="240.0" vehsPerHour="132" departSpeed="desired" type="hdv" />
    <flow id="flow_13_393" route="13" begin="180.0" end="240.0" vehsPerHour="1314" departSpeed="desired" type="hdv" />
    <flow id="flow_21_393" route="21" begin="180.0" end="240.0" vehsPerHour="1444" departSpeed="desired" type="hdv" />
    <flow id="flow_11_393" route="11" begin="180.0" end="240.0" vehsPerHour="1026" departSpeed="desired" type="hdv" />
    <flow id="flow_12_393" route="12" begin="180.0" end="240.0" vehsPerHour="1026" departSpeed="desired" type="hdv" />
    <flow id="flow_19_393" route="19" begin="180.0" end="240.0" vehsPerHour="1156" departSpeed="desired" type="hdv" />
    <flow id="flow_20_393" route="20" begin="180.0" end="240.0" vehsPerHour="1156" departSpeed="desired" type="hdv" />
    <flow id="flow_1_394" route="1" begin="240.0" end="300.0" vehsPerHour="564" departSpeed="desired" type="hdv" />
    <flow id="flow_9_394" route="9" begin="240.0" end="300.0" vehsPerHour="660" departSpeed="desired" type="hdv" />
    <flow id="flow_10_394" route="10" begin="240.0" end="300.0" vehsPerHour="660" departSpeed="desired" type="hdv" />
    <flow id="flow_23_394" route="23" begin="240.0" end="300.0" vehsPerHour="1828" departSpeed="desired" type="hdv" />
    <flow id="flow_25_394" route="25" begin="240.0" end="300.0" vehsPerHour="11856" departSpeed="desired" type="hdv" />
    <flow id="flow_3_394" route="3" begin="240.0" end="300.0" vehsPerHour="96" departSpeed="desired" type="hdv" />
    <flow id="flow_4_394" route="4" begin="240.0" end="300.0" vehsPerHour="96" departSpeed="desired" type="hdv" />
    <flow id="flow_13_394" route="13" begin="240.0" end="300.0" vehsPerHour="1264" departSpeed="desired" type="hdv" />
    <flow id="flow_21_394" route="21" begin="240.0" end="300.0" vehsPerHour="1412" departSpeed="desired" type="hdv" />
    <flow id="flow_11_394" route="11" begin="240.0" end="300.0" vehsPerHour="1060" departSpeed="desired" type="hdv" />
    <flow id="flow_12_394" route="12" begin="240.0" end="300.0" vehsPerHour="1060" departSpeed="desired" type="hdv" />
    <flow id="flow_19_394" route="19" begin="240.0" end="300.0" vehsPerHour="1208" departSpeed="desired" type="hdv" />
    <flow id="flow_20_394" route="20" begin="240.0" end="300.0" vehsPerHour="1208" departSpeed="desired" type="hdv" />
    <flow id="flow_1_395" route="1" begin="300.0" end="360.0" vehsPerHour="588" departSpeed="desired" type="hdv" />
    <flow id="flow_9_395" route="9" begin="300.0" end="360.0" vehsPerHour="714" departSpeed="desired" type="hdv" />
    <flow id="flow_10_395" route="10" begin="300.0" end="360.0" vehsPerHour="714" departSpeed="desired" type="hdv" />
    <flow id="flow_23_395" route="23" begin="300.0" end="360.0" vehsPerHour="1744" departSpeed="desired" type="hdv" />
    <flow id="flow_25_395" route="25" begin="300.0" end="360.0" vehsPerHour="11280" departSpeed="desired" type="hdv" />
    <flow id="flow_3_395" route="3" begin="300.0" end="360.0" vehsPerHour="126" departSpeed="desired" type="hdv" />
    <flow id="flow_4_395" route="4" begin="300.0" end="360.0" vehsPerHour="126" departSpeed="desired" type="hdv" />
    <flow id="flow_13_395" route="13" begin="300.0" end="360.0" vehsPerHour="1156" departSpeed="desired" type="hdv" />
    <flow id="flow_21_395" route="21" begin="300.0" end="360.0" vehsPerHour="1292" departSpeed="desired" type="hdv" />
    <flow id="flow_11_395" route="11" begin="300.0" end="360.0" vehsPerHour="962" departSpeed="desired" type="hdv" />
    <flow id="flow_12_395" route="12" begin="300.0" end="360.0" vehsPerHour="962" departSpeed="desired" type="hdv" />
    <flow id="flow_19_395" route="19" begin="300.0" end="360.0" vehsPerHour="1098" departSpeed="desired" type="hdv" />
    <flow id="flow_20_395" route="20" begin="300.0" end="360.0" vehsPerHour="1098" departSpeed="desired" type="hdv" />
    <flow id="flow_1_396" route="1" begin="360.0" end="420.0" vehsPerHour="618" departSpeed="desired" type="hdv" />
    <flow id="flow_9_396" route="9" begin="360.0" end="420.0" vehsPerHour="806" departSpeed="desired" type="hdv" />
    <flow id="flow_10_396" route="10" begin="360.0" end="420.0" vehsPerHour="806" departSpeed="desired" type="hdv" />
    <flow id="flow_23_396" route="23" begin="360.0" end="420.0" vehsPerHour="1810" departSpeed="desired" type="hdv" />
    <flow id="flow_25_396" route="25" begin="360.0" end="420.0" vehsPerHour="11820" departSpeed="desired" type="hdv" />
    <flow id="flow_3_396" route="3" begin="360.0" end="420.0" vehsPerHour="188" departSpeed="desired" type="hdv" />
    <flow id="flow_4_396" route="4" begin="360.0" end="420.0" vehsPerHour="188" departSpeed="desired" type="hdv" />
    <flow id="flow_13_396" route="13" begin="360.0" end="420.0" vehsPerHour="1192" departSpeed="desired" type="hdv" />
    <flow id="flow_21_396" route="21" begin="360.0" end="420.0" vehsPerHour="1352" departSpeed="desired" type="hdv" />
    <flow id="flow_11_396" route="11" begin="360.0" end="420.0" vehsPerHour="890" departSpeed="desired" type="hdv" />
    <flow id="flow_12_396" route="12" begin="360.0" end="420.0" vehsPerHour="890" departSpeed="desired" type="hdv" />
    <flow id="flow_19_396" route="19" begin="360.0" end="420.0" vehsPerHour="1050" departSpeed="desired" type="hdv" />
    <flow id="flow_20_396" route="20" begin="360.0" end="420.0" vehsPerHour="1050" departSpeed="desired" type="hdv" />
    <flow id="flow_1_397" route="1" begin="420.0" end="480.0" vehsPerHour="600" departSpeed="desired" type="hdv" />
    <flow id="flow_9_397" route="9" begin="420.0" end="480.0" vehsPerHour="828" departSpeed="desired" type="hdv" />
    <flow id="flow_10_397" route="10" begin="420.0" end="480.0" vehsPerHour="828" departSpeed="desired" type="hdv" />
    <flow id="flow_23_397" route="23" begin="420.0" end="480.0" vehsPerHour="1682" departSpeed="desired" type="hdv" />
    <flow id="flow_25_397" route="25" begin="420.0" end="480.0" vehsPerHour="11028" departSpeed="desired" type="hdv" />
    <flow id="flow_3_397" route="3" begin="420.0" end="480.0" vehsPerHour="228" departSpeed="desired" type="hdv" />
    <flow id="flow_4_397" route="4" begin="420.0" end="480.0" vehsPerHour="228" departSpeed="desired" type="hdv" />
    <flow id="flow_13_397" route="13" begin="420.0" end="480.0" vehsPerHour="1082" departSpeed="desired" type="hdv" />
    <flow id="flow_21_397" route="21" begin="420.0" end="480.0" vehsPerHour="1238" departSpeed="desired" type="hdv" />
    <flow id="flow_11_397" route="11" begin="420.0" end="480.0" vehsPerHour="738" departSpeed="desired" type="hdv" />
    <flow id="flow_12_397" route="12" begin="420.0" end="480.0" vehsPerHour="738" departSpeed="desired" type="hdv" />
    <flow id="flow_19_397" route="19" begin="420.0" end="480.0" vehsPerHour="894" departSpeed="desired" type="hdv" />
    <flow id="flow_20_397" route="20" begin="420.0" end="480.0" vehsPerHour="894" departSpeed="desired" type="hdv" />
    <flow id="flow_1_398" route="1" begin="480.0" end="540.0" vehsPerHour="606" departSpeed="desired" type="hdv" />
    <flow id="flow_9_398" route="9" begin="480.0" end="540.0" vehsPerHour="818" departSpeed="desired" type="hdv" />
    <flow id="flow_10_398" route="10" begin="480.0" end="540.0" vehsPerHour="818" departSpeed="desired" type="hdv" />
    <flow id="flow_23_398" route="23" begin="480.0" end="540.0" vehsPerHour="1772" departSpeed="desired" type="hdv" />
    <flow id="flow_25_398" route="25" begin="480.0" end="540.0" vehsPerHour="11808" departSpeed="desired" type="hdv" />
    <flow id="flow_3_398" route="3" begin="480.0" end="540.0" vehsPerHour="212" departSpeed="desired" type="hdv" />
    <flow id="flow_4_398" route="4" begin="480.0" end="540.0" vehsPerHour="212" departSpeed="desired" type="hdv" />
    <flow id="flow_13_398" route="13" begin="480.0" end="540.0" vehsPerHour="1166" departSpeed="desired" type="hdv" />
    <flow id="flow_21_398" route="21" begin="480.0" end="540.0" vehsPerHour="1362" departSpeed="desired" type="hdv" />
    <flow id="flow_11_398" route="11" begin="480.0" end="540.0" vehsPerHour="814" departSpeed="desired" type="hdv" />
    <flow id="flow_12_398" route="12" begin="480.0" end="540.0" vehsPerHour="814" departSpeed="desired" type="hdv" />
    <flow id="flow_19_398" route="19" begin="480.0" end="540.0" vehsPerHour="1010" departSpeed="desired" type="hdv" />
    <flow id="flow_20_398" route="20" begin="480.0" end="540.0" vehsPerHour="1010" departSpeed="desired" type="hdv" />
    <flow id="flow_1_399" route="1" begin="540.0" end="600.0" vehsPerHour="648" departSpeed="desired" type="hdv" />
    <flow id="flow_9_399" route="9" begin="540.0" end="600.0" vehsPerHour="822" departSpeed="desired" type="hdv" />
    <flow id="flow_10_399" route="10" begin="540.0" end="600.0" vehsPerHour="822" departSpeed="desired" type="hdv" />
    <flow id="flow_23_399" route="23" begin="540.0" end="600.0" vehsPerHour="1762" departSpeed="desired" type="hdv" />
    <flow id="flow_25_399" route="25" begin="540.0" end="600.0" vehsPerHour="11580" departSpeed="desired" type="hdv" />
    <flow id="flow_3_399" route="3" begin="540.0" end="600.0" vehsPerHour="174" departSpeed="desired" type="hdv" />
    <flow id="flow_4_399" route="4" begin="540.0" end="600.0" vehsPerHour="174" departSpeed="desired" type="hdv" />
    <flow id="flow_13_399" route="13" begin="540.0" end="600.0" vehsPerHour="1114" departSpeed="desired" type="hdv" />
    <flow id="flow_21_399" route="21" begin="540.0" end="600.0" vehsPerHour="1282" departSpeed="desired" type="hdv" />
    <flow id="flow_11_399" route="11" begin="540.0" end="600.0" vehsPerHour="784" departSpeed="desired" type="hdv" />
    <flow id="flow_12_399" route="12" begin="540.0" end="600.0" vehsPerHour="784" departSpeed="desired" type="hdv" />
    <flow id="flow_19_399" route="19" begin="540.0" end="600.0" vehsPerHour="952" departSpeed="desired" type="hdv" />
    <flow id="flow_20_399" route="20" begin="540.0" end="600.0" vehsPerHour="952" departSpeed="desired" type="hdv" />
    <flow id="flow_1_400" route="1" begin="600.0" end="660.0" vehsPerHour="598" departSpeed="desired" type="hdv" />
    <flow id="flow_9_400" route="9" begin="600.0" end="660.0" vehsPerHour="812" departSpeed="desired" type="hdv" />
    <flow id="flow_10_400" route="10" begin="600.0" end="660.0" vehsPerHour="812" departSpeed="desired" type="hdv" />
    <flow id="flow_23_400" route="23" begin="600.0" end="660.0" vehsPerHour="1728" departSpeed="desired" type="hdv" />
    <flow id="flow_25_400" route="25" begin="600.0" end="660.0" vehsPerHour="11316" departSpeed="desired" type="hdv" />
    <flow id="flow_3_400" route="3" begin="600.0" end="660.0" vehsPerHour="214" departSpeed="desired" type="hdv" />
    <flow id="flow_4_400" route="4" begin="600.0" end="660.0" vehsPerHour="214" departSpeed="desired" type="hdv" />
    <flow id="flow_13_400" route="13" begin="600.0" end="660.0" vehsPerHour="1130" departSpeed="desired" type="hdv" />
    <flow id="flow_21_400" route="21" begin="600.0" end="660.0" vehsPerHour="1288" departSpeed="desired" type="hdv" />
    <flow id="flow_11_400" route="11" begin="600.0" end="660.0" vehsPerHour="754" departSpeed="desired" type="hdv" />
    <flow id="flow_12_400" route="12" begin="600.0" end="660.0" vehsPerHour="754" departSpeed="desired" type="hdv" />
    <flow id="flow_19_400" route="19" begin="600.0" end="660.0" vehsPerHour="912" departSpeed="desired" type="hdv" />
    <flow id="flow_20_400" route="20" begin="600.0" end="660.0" vehsPerHour="912" departSpeed="desired" type="hdv" />
    <flow id="flow_1_401" route="1" begin="660.0" end="720.0" vehsPerHour="574" departSpeed="desired" type="hdv" />
    <flow id="flow_9_401" route="9" begin="660.0" end="720.0" vehsPerHour="796" departSpeed="desired" type="hdv" />
    <flow id="flow_10_401" route="10" begin="660.0" end="720.0" vehsPerHour="796" departSpeed="desired" type="hdv" />
    <flow id="flow_23_401" route="23" begin="660.0" end="720.0" vehsPerHour="1670" departSpeed="desired" type="hdv" />
    <flow id="flow_25_401" route="25" begin="660.0" end="720.0" vehsPerHour="11100" departSpeed="desired" type="hdv" />
    <flow id="flow_3_401" route="3" begin="660.0" end="720.0" vehsPerHour="222" departSpeed="desired" type="hdv" />
    <flow id="flow_4_401" route="4" begin="660.0" end="720.0" vehsPerHour="222" departSpeed="desired" type="hdv" />
    <flow id="flow_13_401" route="13" begin="660.0" end="720.0" vehsPerHour="1096" departSpeed="desired" type="hdv" />
    <flow id="flow_21_401" route="21" begin="660.0" end="720.0" vehsPerHour="1276" departSpeed="desired" type="hdv" />
    <flow id="flow_11_401" route="11" begin="660.0" end="720.0" vehsPerHour="736" departSpeed="desired" type="hdv" />
    <flow id="flow_12_401" route="12" begin="660.0" end="720.0" vehsPerHour="736" departSpeed="desired" type="hdv" />
    <flow id="flow_19_401" route="19" begin="660.0" end="720.0" vehsPerHour="916" departSpeed="desired" type="hdv" />
    <flow id="flow_20_401" route="20" begin="660.0" end="720.0" vehsPerHour="916" departSpeed="desired" type="hdv" />
    <flow id="flow_1_402" route="1" begin="720.0" end="780.0" vehsPerHour="508" departSpeed="desired" type="hdv" />
    <flow id="flow_9_402" route="9" begin="720.0" end="780.0" vehsPerHour="724" departSpeed="desired" type="hdv" />
    <flow id="flow_10_402" route="10" begin="720.0" end="780.0" vehsPerHour="724" departSpeed="desired" type="hdv" />
    <flow id="flow_23_402" route="23" begin="720.0" end="780.0" vehsPerHour="1628" departSpeed="desired" type="hdv" />
    <flow id="flow_25_402" route="25" begin="720.0" end="780.0" vehsPerHour="10896" departSpeed="desired" type="hdv" />
    <flow id="flow_3_402" route="3" begin="720.0" end="780.0" vehsPerHour="216" departSpeed="desired" type="hdv" />
    <flow id="flow_4_402" route="4" begin="720.0" end="780.0" vehsPerHour="216" departSpeed="desired" type="hdv" />
    <flow id="flow_13_402" route="13" begin="720.0" end="780.0" vehsPerHour="1120" departSpeed="desired" type="hdv" />
    <flow id="flow_21_402" route="21" begin="720.0" end="780.0" vehsPerHour="1308" departSpeed="desired" type="hdv" />
    <flow id="flow_11_402" route="11" begin="720.0" end="780.0" vehsPerHour="754" departSpeed="desired" type="hdv" />
    <flow id="flow_12_402" route="12" begin="720.0" end="780.0" vehsPerHour="754" departSpeed="desired" type="hdv" />
    <flow id="flow_19_402" route="19" begin="720.0" end="780.0" vehsPerHour="942" departSpeed="desired" type="hdv" />
    <flow id="flow_20_402" route="20" begin="720.0" end="780.0" vehsPerHour="942" departSpeed="desired" type="hdv" />
    <flow id="flow_1_403" route="1" begin="780.0" end="840.0" vehsPerHour="518" departSpeed="desired" type="hdv" />
    <flow id="flow_9_403" route="9" begin="780.0" end="840.0" vehsPerHour="700" departSpeed="desired" type="hdv" />
    <flow id="flow_10_403" route="10" begin="780.0" end="840.0" vehsPerHour="700" departSpeed="desired" type="hdv" />
    <flow id="flow_23_403" route="23" begin="780.0" end="840.0" vehsPerHour="1676" departSpeed="desired" type="hdv" />
    <flow id="flow_25_403" route="25" begin="780.0" end="840.0" vehsPerHour="11076" departSpeed="desired" type="hdv" />
    <flow id="flow_3_403" route="3" begin="780.0" end="840.0" vehsPerHour="182" departSpeed="desired" type="hdv" />
    <flow id="flow_4_403" route="4" begin="780.0" end="840.0" vehsPerHour="182" departSpeed="desired" type="hdv" />
    <flow id="flow_13_403" route="13" begin="780.0" end="840.0" vehsPerHour="1158" departSpeed="desired" type="hdv" />
    <flow id="flow_21_403" route="21" begin="780.0" end="840.0" vehsPerHour="1328" departSpeed="desired" type="hdv" />
    <flow id="flow_11_403" route="11" begin="780.0" end="840.0" vehsPerHour="832" departSpeed="desired" type="hdv" />
    <flow id="flow_12_403" route="12" begin="780.0" end="840.0" vehsPerHour="832" departSpeed="desired" type="hdv" />
    <flow id="flow_19_403" route="19" begin="780.0" end="840.0" vehsPerHour="1002" departSpeed="desired" type="hdv" />
    <flow id="flow_20_403" route="20" begin="780.0" end="840.0" vehsPerHour="1002" departSpeed="desired" type="hdv" />
    <flow id="flow_1_404" route="1" begin="840.0" end="900.0" vehsPerHour="560" departSpeed="desired" type="hdv" />
    <flow id="flow_9_404" route="9" begin="840.0" end="900.0" vehsPerHour="716" departSpeed="desired" type="hdv" />
    <flow id="flow_10_404" route="10" begin="840.0" end="900.0" vehsPerHour="716" departSpeed="desired" type="hdv" />
    <flow id="flow_23_404" route="23" begin="840.0" end="900.0" vehsPerHour="1584" departSpeed="desired" type="hdv" />
    <flow id="flow_25_404" route="25" begin="840.0" end="900.0" vehsPerHour="10512" departSpeed="desired" type="hdv" />
    <flow id="flow_3_404" route="3" begin="840.0" end="900.0" vehsPerHour="156" departSpeed="desired" type="hdv" />
    <flow id="flow_4_404" route="4" begin="840.0" end="900.0" vehsPerHour="156" departSpeed="desired" type="hdv" />
    <flow id="flow_13_404" route="13" begin="840.0" end="900.0" vehsPerHour="1024" departSpeed="desired" type="hdv" />
    <flow id="flow_21_404" route="21" begin="840.0" end="900.0" vehsPerHour="1192" departSpeed="desired" type="hdv" />
    <flow id="flow_11_404" route="11" begin="840.0" end="900.0" vehsPerHour="736" departSpeed="desired" type="hdv" />
    <flow id="flow_12_404" route="12" begin="840.0" end="900.0" vehsPerHour="736" departSpeed="desired" type="hdv" />
    <flow id="flow_19_404" route="19" begin="840.0" end="900.0" vehsPerHour="904" departSpeed="desired" type="hdv" />
    <flow id="flow_20_404" route="20" begin="840.0" end="900.0" vehsPerHour="904" departSpeed="desired" type="hdv" />
    <flow id="flow_1_405" route="1" begin="900.0" end="960.0" vehsPerHour="542" departSpeed="desired" type="hdv" />
    <flow id="flow_9_405" route="9" begin="900.0" end="960.0" vehsPerHour="718" departSpeed="desired" type="hdv" />
    <flow id="flow_10_405" route="10" begin="900.0" end="960.0" vehsPerHour="718" departSpeed="desired" type="hdv" />
    <flow id="flow_23_405" route="23" begin="900.0" end="960.0" vehsPerHour="1568" departSpeed="desired" type="hdv" />
    <flow id="flow_25_405" route="25" begin="900.0" end="960.0" vehsPerHour="10032" departSpeed="desired" type="hdv" />
    <flow id="flow_3_405" route="3" begin="900.0" end="960.0" vehsPerHour="176" departSpeed="desired" type="hdv" />
    <flow id="flow_4_405" route="4" begin="900.0" end="960.0" vehsPerHour="176" departSpeed="desired" type="hdv" />
    <flow id="flow_13_405" route="13" begin="900.0" end="960.0" vehsPerHour="1026" departSpeed="desired" type="hdv" />
    <flow id="flow_21_405" route="21" begin="900.0" end="960.0" vehsPerHour="1130" departSpeed="desired" type="hdv" />
    <flow id="flow_11_405" route="11" begin="900.0" end="960.0" vehsPerHour="756" departSpeed="desired" type="hdv" />
    <flow id="flow_12_405" route="12" begin="900.0" end="960.0" vehsPerHour="756" departSpeed="desired" type="hdv" />
    <flow id="flow_19_405" route="19" begin="900.0" end="960.0" vehsPerHour="860" departSpeed="desired" type="hdv" />
    <flow id="flow_20_405" route="20" begin="900.0" end="960.0" vehsPerHour="860" departSpeed="desired" type="hdv" />
    <flow id="flow_1_406" route="1" begin="960.0" end="1020.0" vehsPerHour="550" departSpeed="desired" type="hdv" />
    <flow id="flow_9_406" route="9" begin="960.0" end="1020.0" vehsPerHour="710" departSpeed="desired" type="hdv" />
    <flow id="flow_10_406" route="10" begin="960.0" end="1020.0" vehsPerHour="710" departSpeed="desired" type="hdv" />
    <flow id="flow_23_406" route="23" begin="960.0" end="1020.0" vehsPerHour="1616" departSpeed="desired" type="hdv" />
    <flow id="flow_25_406" route="25" begin="960.0" end="1020.0" vehsPerHour="10140" departSpeed="desired" type="hdv" />
    <flow id="flow_3_406" route="3" begin="960.0" end="1020.0" vehsPerHour="160" departSpeed="desired" type="hdv" />
    <flow id="flow_4_406" route="4" begin="960.0" end="1020.0" vehsPerHour="160" departSpeed="desired" type="hdv" />
    <flow id="flow_13_406" route="13" begin="960.0" end="1020.0" vehsPerHour="1066" departSpeed="desired" type="hdv" />
    <flow id="flow_21_406" route="21" begin="960.0" end="1020.0" vehsPerHour="1140" departSpeed="desired" type="hdv" />
    <flow id="flow_11_406" route="11" begin="960.0" end="1020.0" vehsPerHour="786" departSpeed="desired" type="hdv" />
    <flow id="flow_12_406" route="12" begin="960.0" end="1020.0" vehsPerHour="786" departSpeed="desired" type="hdv" />
    <flow id="flow_19_406" route="19" begin="960.0" end="1020.0" vehsPerHour="860" departSpeed="desired" type="hdv" />
    <flow id="flow_20_406" route="20" begin="960.0" end="1020.0" vehsPerHour="860" departSpeed="desired" type="hdv" />
    <flow id="flow_1_407" route="1" begin="1020.0" end="1080.0" vehsPerHour="482" departSpeed="desired" type="hdv" />
    <flow id="flow_9_407" route="9" begin="1020.0" end="1080.0" vehsPerHour="652" departSpeed="desired" type="hdv" />
    <flow id="flow_10_407" route="10" begin="1020.0" end="1080.0" vehsPerHour="652" departSpeed="desired" type="hdv" />
    <flow id="flow_23_407" route="23" begin="1020.0" end="1080.0" vehsPerHour="1686" departSpeed="desired" type="hdv" />
    <flow id="flow_25_407" route="25" begin="1020.0" end="1080.0" vehsPerHour="10668" departSpeed="desired" type="hdv" />
    <flow id="flow_3_407" route="3" begin="1020.0" end="1080.0" vehsPerHour="170" departSpeed="desired" type="hdv" />
    <flow id="flow_4_407" route="4" begin="1020.0" end="1080.0" vehsPerHour="170" departSpeed="desired" type="hdv" />
    <flow id="flow_13_407" route="13" begin="1020.0" end="1080.0" vehsPerHour="1204" departSpeed="desired" type="hdv" />
    <flow id="flow_21_407" route="21" begin="1020.0" end="1080.0" vehsPerHour="1296" departSpeed="desired" type="hdv" />
    <flow id="flow_11_407" route="11" begin="1020.0" end="1080.0" vehsPerHour="884" departSpeed="desired" type="hdv" />
    <flow id="flow_12_407" route="12" begin="1020.0" end="1080.0" vehsPerHour="884" departSpeed="desired" type="hdv" />
    <flow id="flow_19_407" route="19" begin="1020.0" end="1080.0" vehsPerHour="976" departSpeed="desired" type="hdv" />
    <flow id="flow_20_407" route="20" begin="1020.0" end="1080.0" vehsPerHour="976" departSpeed="desired" type="hdv" />
    <flow id="flow_1_408" route="1" begin="1080.0" end="1140.0" vehsPerHour="462" departSpeed="desired" type="hdv" />