<?xml version='1.0' encoding='UTF-8'?>
<routes xmlns:xsi="http://www.w3.org/2001/XMLSchema-instance" xsi:noNamespaceSchemaLocation="http://sumo.dlr.de/xsd/routes_file.xsd">
    
    
    <vType id="hdv" length="4.3" carFollowModel="IDM" emergencyDecel="4.0" cf="{'maxSpeed': 30.55, 'minGap': 2.5, 'accel': 1.5, 'decel': 2, 'tau': 1.4, 'emergencyDecel': 4.0}" lc="{'laneChangeModel': 'SL2015', 'lcSublane': 1.0, 'latAlignment': 'arbitrary', 'maxSpeedLat': 1.4, 'lcAccelLat': 0.7, 'minGapLat': 0.4, 'lcStrategic': 10.0, 'lcCooperative': 1.0, 'lcPushy': 0.4, 'lcImpatience': 0.9, 'lcSpeedGain': 1.5, 'lcKeepRight': 0.0, 'lcOvertakeRight': 0.0}" />
    

    
    
    
    <route id="1" edges="277208926 634155175-AddedOnRampEdge 634155175" />
    
    
    
    <route id="2" edges="27828382 27828382-AddedOffRampEdge 180933397" />
    
    
    
    <route id="3" edges="19441652#0 19441652#1-AddedOnRampEdge 19441652#1 992666043 19442635" />
    
    
    
    <route id="4" edges="1016548847 19441652#1-AddedOnRampEdge 19441652#1 992666043 19442635" />
    
    
    
    
    
    
    
    
    
    
    
    <route id="9" edges="19441652#0 19441652#1-AddedOnRampEdge 19441652#1 992666043 992666042 634155175-AddedOnRampEdge 634155175" />
    
    
    
    <route id="10" edges="1016548847 19441652#1-AddedOnRampEdge 19441652#1 992666043 992666042 634155175-AddedOnRampEdge 634155175" />
    
    
    
    <route id="11" edges="1070403831#1-AddedOnRampEdge 977008894 977008893 977008892 1138588478 1138588478-AddedOffRampEdge 1040737038" />
    
    
    
    <route id="12" edges="1070403831#1-AddedOnRampEdge 977008894 977008893 977008892 1138588478 1138588478-AddedOffRampEdge 19440902" />
    
    
    
    <route id="13" edges="1070403831#1-AddedOnRampEdge 977008894 977008893 977008892 977008891 992666043 19442635" />
    
    
    
    
    
    
    
    
    
    
    
    
    
    <route id="19" edges="27828382 27828382-AddedOffRampEdge 974949114 977008894 977008893 977008892 1138588478 1138588478-AddedOffRampEdge 1040737038" />
    
    
    
    <route id="20" edges="27828382 27828382-AddedOffRampEdge 974949114 977008894 977008893 977008892 1138588478 1138588478-AddedOffRampEdge 19440902" />
    
    
    
    <route id="21" edges="27828382 27828382-AddedOffRampEdge 974949114 977008894 977008893 977008892 977008891 992666043 19442635" />
    
    
    
    
    
    <route id="23" edges="1070403831#1-AddedOnRampEdge 977008894 977008893 977008892 977008891 992666043 992666042 634155175-AddedOnRampEdge 634155175" />
    
    
    
    
    
    <route id="25" edges="27828382 27828382-AddedOffRampEdge 974949114 977008894 977008893 977008892 977008891 992666043 992666042 634155175-AddedOnRampEdge 634155175" />
    
</routes>