<?xml version='1.0' encoding='UTF-8'?>
<routes xmlns:xsi="http://www.w3.org/2001/XMLSchema-instance" xsi:noNamespaceSchemaLocation="http://sumo.dlr.de/xsd/routes_file.xsd">
  
    
    
    
  <vType id="hdv" length="4.3" carFollowModel="IDM" emergencyDecel="4.0" laneChangeModel="SL2015" latAlignment="arbitrary" lcKeepRight="0.0" lcOvertakeRight="0.0" maxSpeed="30.55" minGap="2.5" accel="1.5" decel="2" tau="1.4" lcSublane="1.0" maxSpeedLat="1.4" lcAccelLat="0.7" minGapLat="0.4" lcStrategic="10.0" lcCooperative="1.0" lcPushy="0.4" lcImpatience="0.9" lcSpeedGain="1.5">
    <param key="has.fcd.device" value="true" />
  </vType>
  
    
  <route id="r_0" edges="E0 E1 E3 E5 E7 E8" />
   
    
  <route id="r_1" edges="E0 E1 E3 E4" />
    
    
  <route id="r_2" edges="E2 E1 E3 E4" />
    
    
  <route id="r_3" edges="E2 E1 E3 E5 E7 E8" />
    
    
  <route id="r_4" edges="E6 E7 E8" />

  

</routes>