<?xml version='1.0' encoding='utf-8'?>
<routes xmlns:xsi="http://www.w3.org/2001/XMLSchema-instance" xsi:noNamespaceSchemaLocation="http://sumo.dlr.de/xsd/routes_file.xsd">
  <vType id="hdv" length="4.3" carFollowModel="IDM" emergencyDecel="4.0" laneChangeModel="SL2015" latAlignment="arbitrary" lcKeepRight="0.0" lcOvertakeRight="0.0" maxSpeed="30.55" minGap="2.5" accel="1.5" decel="2" tau="1.4" lcSublane="1.0" maxSpeedLat="1.4" lcAccelLat="0.7" minGapLat="0.4" lcStrategic="10.0" lcCooperative="1.0" lcPushy="0.4" lcImpatience="0.9" lcSpeedGain="1.5">
    <param key="has.fcd.device" value="true" />
  </vType>
  <route id="r_0" edges="E0 E1 E3 E5 E7 E8" />
  <route id="r_1" edges="E0 E1 E3 E4" />
  <route id="r_2" edges="E2 E1 E3 E4" />
  <route id="r_3" edges="E2 E1 E3 E5 E7 E8" />
  <route id="r_4" edges="E6 E7 E8" />
  <flow id="f_r1_0" type="hdv" begin="0" departLane="best" route="r1" end="30" vehsPerHour="336.00" departSpeed="desired" />
  <flow id="f_r3_1" type="hdv" begin="0" departLane="best" route="r3" end="30" vehsPerHour="42.80" departSpeed="desired" />
  <flow id="f_r4_2" type="hdv" begin="0" departLane="best" route="r4" end="30" vehsPerHour="42.80" departSpeed="desired" />
  <flow id="f_r9_3" type="hdv" begin="0" departLane="best" route="r9" end="30" vehsPerHour="66.20" departSpeed="desired" />
  <flow id="f_r10_4" type="hdv" begin="0" departLane="best" route="r10" end="30" vehsPerHour="66.20" departSpeed="desired" />
  <flow id="f_r11_5" type="hdv" begin="0" departLane="best" route="r11" end="30" vehsPerHour="0.00" departSpeed="desired" />
  <flow id="f_r19_6" type="hdv" begin="0" departLane="best" route="r19" end="30" vehsPerHour="149.40" departSpeed="desired" />
  <flow id="f_r20_7" type="hdv" begin="0" departLane="best" route="r20" end="30" vehsPerHour="149.40" departSpeed="desired" />
  <flow id="f_r21_8" type="hdv" begin="0" departLane="best" route="r21" end="30" vehsPerHour="491.09" departSpeed="desired" />
  <flow id="f_r23_9" type="hdv" begin="0" departLane="best" route="r23" end="30" vehsPerHour="1.80" departSpeed="desired" />
  <flow id="f_r25_10" type="hdv" begin="0" departLane="best" route="r25" end="30" vehsPerHour="626.11" departSpeed="desired" />
  <flow id="f_r1_11" type="hdv" begin="30" departLane="best" route="r1" end="60" vehsPerHour="300.00" departSpeed="desired" />
  <flow id="f_r3_12" type="hdv" begin="30" departLane="best" route="r3" end="60" vehsPerHour="35.67" departSpeed="desired" />
  <flow id="f_r4_13" type="hdv" begin="30" departLane="best" route="r4" end="60" vehsPerHour="35.67" departSpeed="desired" />
  <flow id="f_r9_14" type="hdv" begin="30" departLane="best" route="r9" end="60" vehsPerHour="55.17" departSpeed="desired" />
  <flow id="f_r10_15" type="hdv" begin="30" departLane="best" route="r10" end="60" vehsPerHour="55.17" departSpeed="desired" />
  <flow id="f_r11_16" type="hdv" begin="30" departLane="best" route="r11" end="60" vehsPerHour="13.46" departSpeed="desired" />
  <flow id="f_r12_17" type="hdv" begin="30" departLane="best" route="r12" end="60" vehsPerHour="13.46" departSpeed="desired" />
  <flow id="f_r13_18" type="hdv" begin="30" departLane="best" route="r13" end="60" vehsPerHour="0.04" departSpeed="desired" />
  <flow id="f_r19_19" type="hdv" begin="30" departLane="best" route="r19" end="60" vehsPerHour="161.04" departSpeed="desired" />
  <flow id="f_r20_20" type="hdv" begin="30" departLane="best" route="r20" end="60" vehsPerHour="161.04" departSpeed="desired" />
  <flow id="f_r21_21" type="hdv" begin="30" departLane="best" route="r21" end="60" vehsPerHour="506.20" departSpeed="desired" />
  <flow id="f_r23_22" type="hdv" begin="30" departLane="best" route="r23" end="60" vehsPerHour="49.54" departSpeed="desired" />
  <flow id="f_r25_23" type="hdv" begin="30" departLane="best" route="r25" end="60" vehsPerHour="666.72" departSpeed="desired" />
  <flow id="f_r1_24" type="hdv" begin="60" departLane="best" route="r1" end="90" vehsPerHour="257.14" departSpeed="desired" />
  <flow id="f_r3_25" type="hdv" begin="60" departLane="best" route="r3" end="90" vehsPerHour="30.57" departSpeed="desired" />
  <flow id="f_r4_26" type="hdv" begin="60" departLane="best" route="r4" end="90" vehsPerHour="30.57" departSpeed="desired" />
  <flow id="f_r9_27" type="hdv" begin="60" departLane="best" route="r9" end="90" vehsPerHour="47.29" departSpeed="desired" />
  <flow id="f_r10_28" type="hdv" begin="60" departLane="best" route="r10" end="90" vehsPerHour="47.29" departSpeed="desired" />
  <flow id="f_r11_29" type="hdv" begin="60" departLane="best" route="r11" end="90" vehsPerHour="14.97" departSpeed="desired" />
  <flow id="f_r12_30" type="hdv" begin="60" departLane="best" route="r12" end="90" vehsPerHour="14.97" departSpeed="desired" />
  <flow id="f_r13_31" type="hdv" begin="60" departLane="best" route="r13" end="90" vehsPerHour="0.03" departSpeed="desired" />
  <flow id="f_r19_32" type="hdv" begin="60" departLane="best" route="r19" end="90" vehsPerHour="160.32" departSpeed="desired" />
  <flow id="f_r20_33" type="hdv" begin="60" departLane="best" route="r20" end="90" vehsPerHour="160.32" departSpeed="desired" />
  <flow id="f_r21_34" type="hdv" begin="60" departLane="best" route="r21" end="90" vehsPerHour="576.60" departSpeed="desired" />
  <flow id="f_r23_35" type="hdv" begin="60" departLane="best" route="r23" end="90" vehsPerHour="79.75" departSpeed="desired" />
  <flow id="f_r25_36" type="hdv" begin="60" departLane="best" route="r25" end="90" vehsPerHour="778.48" departSpeed="desired" />
  <flow id="f_r1_37" type="hdv" begin="90" departLane="best" route="r1" end="120" vehsPerHour="225.00" departSpeed="desired" />
  <flow id="f_r3_38" type="hdv" begin="90" departLane="best" route="r3" end="120" vehsPerHour="26.75" departSpeed="desired" />
  <flow id="f_r4_39" type="hdv" begin="90" departLane="best" route="r4" end="120" vehsPerHour="26.75" departSpeed="desired" />
  <flow id="f_r9_40" type="hdv" begin="90" departLane="best" route="r9" end="120" vehsPerHour="46.06" departSpeed="desired" />
  <flow id="f_r10_41" type="hdv" begin="90" departLane="best" route="r10" end="120" vehsPerHour="46.06" departSpeed="desired" />
  <flow id="f_r11_42" type="hdv" begin="90" departLane="best" route="r11" end="120" vehsPerHour="32.45" departSpeed="desired" />
  <flow id="f_r12_43" type="hdv" begin="90" departLane="best" route="r12" end="120" vehsPerHour="32.45" departSpeed="desired" />
  <flow id="f_r13_44" type="hdv" begin="90" departLane="best" route="r13" end="120" vehsPerHour="0.03" departSpeed="desired" />
  <flow id="f_r19_45" type="hdv" begin="90" departLane="best" route="r19" end="120" vehsPerHour="180.92" departSpeed="desired" />
  <flow id="f_r20_46" type="hdv" begin="90" departLane="best" route="r20" end="120" vehsPerHour="180.92" departSpeed="desired" />
  <flow id="f_r21_47" type="hdv" begin="90" departLane="best" route="r21" end="120" vehsPerHour="542.32" departSpeed="desired" />
  <flow id="f_r23_48" type="hdv" begin="90" departLane="best" route="r23" end="120" vehsPerHour="204.49" departSpeed="desired" />
  <flow id="f_r25_49" type="hdv" begin="90" departLane="best" route="r25" end="120" vehsPerHour="877.08" departSpeed="desired" />
  <flow id="f_r1_50" type="hdv" begin="120" departLane="best" route="r1" end="150" vehsPerHour="240.00" departSpeed="desired" />
  <flow id="f_r3_51" type="hdv" begin="120" departLane="best" route="r3" end="150" vehsPerHour="23.78" departSpeed="desired" />
  <flow id="f_r4_52" type="hdv" begin="120" departLane="best" route="r4" end="150" vehsPerHour="23.78" departSpeed="desired" />
  <flow id="f_r9_53" type="hdv" begin="120" departLane="best" route="r9" end="150" vehsPerHour="49.99" departSpeed="desired" />
  <flow id="f_r10_54" type="hdv" begin="120" departLane="best" route="r10" end="150" vehsPerHour="49.99" departSpeed="desired" />
  <flow id="f_r11_55" type="hdv" begin="120" departLane="best" route="r11" end="150" vehsPerHour="33.15" departSpeed="desired" />
  <flow id="f_r12_56" type="hdv" begin="120" departLane="best" route="r12" end="150" vehsPerHour="33.15" departSpeed="desired" />
  <flow id="f_r13_57" type="hdv" begin="120" departLane="best" route="r13" end="150" vehsPerHour="0.03" departSpeed="desired" />
  <flow id="f_r19_58" type="hdv" begin="120" departLane="best" route="r19" end="150" vehsPerHour="183.19" departSpeed="desired" />
  <flow id="f_r20_59" type="hdv" begin="120" departLane="best" route="r20" end="150" vehsPerHour="183.19" departSpeed="desired" />
  <flow id="f_r21_60" type="hdv" begin="120" departLane="best" route="r21" end="150" vehsPerHour="562.63" departSpeed="desired" />
  <flow id="f_r23_61" type="hdv" begin="120" departLane="best" route="r23" end="150" vehsPerHour="277.87" departSpeed="desired" />
  <flow id="f_r25_62" type="hdv" begin="120" departLane="best" route="r25" end="150" vehsPerHour="997.67" departSpeed="desired" />
  <flow id="f_r1_63" type="hdv" begin="150" departLane="best" route="r1" end="180" vehsPerHour="216.00" departSpeed="desired" />
  <flow id="f_r3_64" type="hdv" begin="150" departLane="best" route="r3" end="180" vehsPerHour="21.40" departSpeed="desired" />
  <flow id="f_r4_65" type="hdv" begin="150" departLane="best" route="r4" end="180" vehsPerHour="21.40" departSpeed="desired" />
  <flow id="f_r9_66" type="hdv" begin="150" departLane="best" route="r9" end="180" vehsPerHour="44.99" departSpeed="desired" />
  <flow id="f_r10_67" type="hdv" begin="150" departLane="best" route="r10" end="180" vehsPerHour="44.99" departSpeed="desired" />
  <flow id="f_r11_68" type="hdv" begin="150" departLane="best" route="r11" end="180" vehsPerHour="46.86" departSpeed="desired" />
  <flow id="f_r12_69" type="hdv" begin="150" departLane="best" route="r12" end="180" vehsPerHour="46.86" departSpeed="desired" />
  <flow id="f_r13_70" type="hdv" begin="150" departLane="best" route="r13" end="180" vehsPerHour="0.14" departSpeed="desired" />
  <flow id="f_r19_71" type="hdv" begin="150" departLane="best" route="r19" end="180" vehsPerHour="189.84" departSpeed="desired" />
  <flow id="f_r20_72" type="hdv" begin="150" departLane="best" route="r20" end="180" vehsPerHour="189.84" departSpeed="desired" />
  <flow id="f_r21_73" type="hdv" begin="150" departLane="best" route="r21" end="180" vehsPerHour="540.53" departSpeed="desired" />
  <flow id="f_r23_74" type="hdv" begin="150" departLane="best" route="r23" end="180" vehsPerHour="383.91" departSpeed="desired" />
  <flow id="f_r25_75" type="hdv" begin="150" departLane="best" route="r25" end="180" vehsPerHour="1065.79" departSpeed="desired" />
  <flow id="f_r1_76" type="hdv" begin="180" departLane="best" route="r1" end="210" vehsPerHour="216.00" departSpeed="desired" />
  <flow id="f_r3_77" type="hdv" begin="180" departLane="best" route="r3" end="210" vehsPerHour="17.40" departSpeed="desired" />
  <flow id="f_r4_78" type="hdv" begin="180" departLane="best" route="r4" end="210" vehsPerHour="17.40" departSpeed="desired" />
  <flow id="f_r9_79" type="hdv" begin="180" departLane="best" route="r9" end="210" vehsPerHour="49.13" departSpeed="desired" />
  <flow id="f_r10_80" type="hdv" begin="180" departLane="best" route="r10" end="210" vehsPerHour="49.13" departSpeed="desired" />
  <flow id="f_r11_81" type="hdv" begin="180" departLane="best" route="r11" end="210" vehsPerHour="54.73" departSpeed="desired" />
  <flow id="f_r12_82" type="hdv" begin="180" departLane="best" route="r12" end="210" vehsPerHour="54.73" departSpeed="desired" />
  <flow id="f_r13_83" type="hdv" begin="180" departLane="best" route="r13" end="210" vehsPerHour="0.14" departSpeed="desired" />
  <flow id="f_r19_84" type="hdv" begin="180" departLane="best" route="r19" end="210" vehsPerHour="217.97" departSpeed="desired" />
  <flow id="f_r20_85" type="hdv" begin="180" departLane="best" route="r20" end="210" vehsPerHour="217.97" departSpeed="desired" />
  <flow id="f_r21_86" type="hdv" begin="180" departLane="best" route="r21" end="210" vehsPerHour="593.55" departSpeed="desired" />
  <flow id="f_r23_87" type="hdv" begin="180" departLane="best" route="r23" end="210" vehsPerHour="479.90" departSpeed="desired" />
  <flow id="f_r25_88" type="hdv" begin="180" departLane="best" route="r25" end="210" vehsPerHour="1238.52" departSpeed="desired" />
  <flow id="f_r1_89" type="hdv" begin="210" departLane="best" route="r1" end="240" vehsPerHour="240.00" departSpeed="desired" />
  <flow id="f_r3_90" type="hdv" begin="210" departLane="best" route="r3" end="240" vehsPerHour="4.84" departSpeed="desired" />
  <flow id="f_r4_91" type="hdv" begin="210" departLane="best" route="r4" end="240" vehsPerHour="4.84" departSpeed="desired" />
  <flow id="f_r9_92" type="hdv" begin="210" departLane="best" route="r9" end="240" vehsPerHour="49.69" departSpeed="desired" />
  <flow id="f_r10_93" type="hdv" begin="210" departLane="best" route="r10" end="240" vehsPerHour="49.69" departSpeed="desired" />
  <flow id="f_r11_94" type="hdv" begin="210" departLane="best" route="r11" end="240" vehsPerHour="61.16" departSpeed="desired" />
  <flow id="f_r12_95" type="hdv" begin="210" departLane="best" route="r12" end="240" vehsPerHour="61.16" departSpeed="desired" />
  <flow id="f_r13_96" type="hdv" begin="210" departLane="best" route="r13" end="240" vehsPerHour="0.14" departSpeed="desired" />
  <flow id="f_r19_97" type="hdv" begin="210" departLane="best" route="r19" end="240" vehsPerHour="241.54" departSpeed="desired" />
  <flow id="f_r20_98" type="hdv" begin="210" departLane="best" route="r20" end="240" vehsPerHour="241.54" departSpeed="desired" />
  <flow id="f_r21_99" type="hdv" begin="210" departLane="best" route="r21" end="240" vehsPerHour="633.54" departSpeed="desired" />
  <flow id="f_r23_100" type="hdv" begin="210" departLane="best" route="r23" end="240" vehsPerHour="565.91" departSpeed="desired" />
  <flow id="f_r25_101" type="hdv" begin="210" departLane="best" route="r25" end="240" vehsPerHour="1367.39" departSpeed="desired" />
  <flow id="f_r1_102" type="hdv" begin="240" departLane="best" route="r1" end="270" vehsPerHour="144.00" departSpeed="desired" />
  <flow id="f_r3_103" type="hdv" begin="240" departLane="best" route="r3" end="270" vehsPerHour="0.84" departSpeed="desired" />
  <flow id="f_r4_104" type="hdv" begin="240" departLane="best" route="r4" end="270" vehsPerHour="0.84" departSpeed="desired" />
  <flow id="f_r9_105" type="hdv" begin="240" departLane="best" route="r9" end="270" vehsPerHour="54.89" departSpeed="desired" />
  <flow id="f_r10_106" type="hdv" begin="240" departLane="best" route="r10" end="270" vehsPerHour="54.89" departSpeed="desired" />
  <flow id="f_r11_107" type="hdv" begin="240" departLane="best" route="r11" end="270" vehsPerHour="74.88" departSpeed="desired" />
  <flow id="f_r12_108" type="hdv" begin="240" departLane="best" route="r12" end="270" vehsPerHour="74.88" departSpeed="desired" />
  <flow id="f_r13_109" type="hdv" begin="240" departLane="best" route="r13" end="270" vehsPerHour="0.14" departSpeed="desired" />
  <flow id="f_r19_110" type="hdv" begin="240" departLane="best" route="r19" end="270" vehsPerHour="275.82" departSpeed="desired" />
  <flow id="f_r20_111" type="hdv" begin="240" departLane="best" route="r20" end="270" vehsPerHour="275.82" departSpeed="desired" />
  <flow id="f_r21_112" type="hdv" begin="240" departLane="best" route="r21" end="270" vehsPerHour="596.95" departSpeed="desired" />
  <flow id="f_r23_113" type="hdv" begin="240" departLane="best" route="r23" end="270" vehsPerHour="686.49" departSpeed="desired" />
  <flow id="f_r25_114" type="hdv" begin="240" departLane="best" route="r25" end="270" vehsPerHour="1464.40" departSpeed="desired" />
  <flow id="f_r1_115" type="hdv" begin="270" departLane="best" route="r1" end="300" vehsPerHour="156.00" departSpeed="desired" />
  <flow id="f_r3_116" type="hdv" begin="270" departLane="best" route="r3" end="300" vehsPerHour="4.84" departSpeed="desired" />
  <flow id="f_r4_117" type="hdv" begin="270" departLane="best" route="r4" end="300" vehsPerHour="4.84" departSpeed="desired" />
  <flow id="f_r9_118" type="hdv" begin="270" departLane="best" route="r9" end="300" vehsPerHour="56.39" departSpeed="desired" />
  <flow id="f_r10_119" type="hdv" begin="270" departLane="best" route="r10" end="300" vehsPerHour="56.39" departSpeed="desired" />
  <flow id="f_r11_120" type="hdv" begin="270" departLane="best" route="r11" end="300" vehsPerHour="79.38" departSpeed="desired" />
  <flow id="f_r12_121" type="hdv" begin="270" departLane="best" route="r12" end="300" vehsPerHour="79.38" departSpeed="desired" />
  <flow id="f_r13_122" type="hdv" begin="270" departLane="best" route="r13" end="300" vehsPerHour="0.14" departSpeed="desired" />
  <flow id="f_r19_123" type="hdv" begin="270" departLane="best" route="r19" end="300" vehsPerHour="264.12" departSpeed="desired" />
  <flow id="f_r20_124" type="hdv" begin="270" departLane="best" route="r20" end="300" vehsPerHour="264.12" departSpeed="desired" />
  <flow id="f_r21_125" type="hdv" begin="270" departLane="best" route="r21" end="300" vehsPerHour="592.15" departSpeed="desired" />
  <flow id="f_r23_126" type="hdv" begin="270" departLane="best" route="r23" end="300" vehsPerHour="792.99" departSpeed="desired" />
  <flow id="f_r25_127" type="hdv" begin="270" departLane="best" route="r25" end="300" vehsPerHour="1618.60" departSpeed="desired" />
  <flow id="f_r1_128" type="hdv" begin="300" departLane="best" route="r1" end="330" vehsPerHour="132.00" departSpeed="desired" />
  <flow id="f_r3_129" type="hdv" begin="300" departLane="best" route="r3" end="330" vehsPerHour="4.84" departSpeed="desired" />
  <flow id="f_r4_130" type="hdv" begin="300" departLane="best" route="r4" end="330" vehsPerHour="4.84" departSpeed="desired" />
  <flow id="f_r9_131" type="hdv" begin="300" departLane="best" route="r9" end="330" vehsPerHour="65.39" departSpeed="desired" />
  <flow id="f_r10_132" type="hdv" begin="300" departLane="best" route="r10" end="330" vehsPerHour="65.39" departSpeed="desired" />
  <flow id="f_r11_133" type="hdv" begin="300" departLane="best" route="r11" end="330" vehsPerHour="96.40" departSpeed="desired" />
  <flow id="f_r12_134" type="hdv" begin="300" departLane="best" route="r12" end="330" vehsPerHour="96.40" departSpeed="desired" />
  <flow id="f_r13_135" type="hdv" begin="300" departLane="best" route="r13" end="330" vehsPerHour="7.11" departSpeed="desired" />
  <flow id="f_r19_136" type="hdv" begin="300" departLane="best" route="r19" end="330" vehsPerHour="257.60" departSpeed="desired" />
  <flow id="f_r20_137" type="hdv" begin="300" departLane="best" route="r20" end="330" vehsPerHour="257.60" departSpeed="desired" />
  <flow id="f_r21_138" type="hdv" begin="300" departLane="best" route="r21" end="330" vehsPerHour="556.03" departSpeed="desired" />
  <flow id="f_r23_139" type="hdv" begin="300" departLane="best" route="r23" end="330" vehsPerHour="925.97" departSpeed="desired" />
  <flow id="f_r25_140" type="hdv" begin="300" departLane="best" route="r25" end="330" vehsPerHour="1682.77" departSpeed="desired" />
  <flow id="f_r1_141" type="hdv" begin="330" departLane="best" route="r1" end="360" vehsPerHour="144.00" departSpeed="desired" />
  <flow id="f_r3_142" type="hdv" begin="330" departLane="best" route="r3" end="360" vehsPerHour="8.70" departSpeed="desired" />
  <flow id="f_r4_143" type="hdv" begin="330" departLane="best" route="r4" end="360" vehsPerHour="8.70" departSpeed="desired" />
  <flow id="f_r9_144" type="hdv" begin="330" departLane="best" route="r9" end="360" vehsPerHour="83.53" departSpeed="desired" />
  <flow id="f_r10_145" type="hdv" begin="330" departLane="best" route="r10" end="360" vehsPerHour="83.53" departSpeed="desired" />
  <flow id="f_r11_146" type="hdv" begin="330" departLane="best" route="r11" end="360" vehsPerHour="96.33" departSpeed="desired" />
  <flow id="f_r12_147" type="hdv" begin="330" departLane="best" route="r12" end="360" vehsPerHour="96.33" departSpeed="desired" />
  <flow id="f_r13_148" type="hdv" begin="330" departLane="best" route="r13" end="360" vehsPerHour="7.09" departSpeed="desired" />
  <flow id="f_r19_149" type="hdv" begin="330" departLane="best" route="r19" end="360" vehsPerHour="275.67" departSpeed="desired" />
  <flow id="f_r20_150" type="hdv" begin="330" departLane="best" route="r20" end="360" vehsPerHour="275.67" departSpeed="desired" />
  <flow id="f_r21_151" type="hdv" begin="330" departLane="best" route="r21" end="360" vehsPerHour="551.99" departSpeed="desired" />
  <flow id="f_r23_152" type="hdv" begin="330" departLane="best" route="r23" end="360" vehsPerHour="987.01" departSpeed="desired" />
  <flow id="f_r25_153" type="hdv" begin="330" departLane="best" route="r25" end="360" vehsPerHour="1773.66" departSpeed="desired" />
  <flow id="f_r1_154" type="hdv" begin="360" departLane="best" route="r1" end="390" vehsPerHour="144.00" departSpeed="desired" />
  <flow id="f_r3_155" type="hdv" begin="360" departLane="best" route="r3" end="390" vehsPerHour="8.70" departSpeed="desired" />
  <flow id="f_r4_156" type="hdv" begin="360" departLane="best" route="r4" end="390" vehsPerHour="8.70" departSpeed="desired" />
  <flow id="f_r9_157" type="hdv" begin="360" departLane="best" route="r9" end="390" vehsPerHour="92.70" departSpeed="desired" />
  <flow id="f_r10_158" type="hdv" begin="360" departLane="best" route="r10" end="390" vehsPerHour="92.70" departSpeed="desired" />
  <flow id="f_r11_159" type="hdv" begin="360" departLane="best" route="r11" end="390" vehsPerHour="104.57" departSpeed="desired" />
  <flow id="f_r12_160" type="hdv" begin="360" departLane="best" route="r12" end="390" vehsPerHour="104.57" departSpeed="desired" />
  <flow id="f_r13_161" type="hdv" begin="360" departLane="best" route="r13" end="390" vehsPerHour="7.09" departSpeed="desired" />
  <flow id="f_r19_162" type="hdv" begin="360" departLane="best" route="r19" end="390" vehsPerHour="279.43" departSpeed="desired" />
  <flow id="f_r20_163" type="hdv" begin="360" departLane="best" route="r20" end="390" vehsPerHour="279.43" departSpeed="desired" />
  <flow id="f_r21_164" type="hdv" begin="360" departLane="best" route="r21" end="390" vehsPerHour="484.41" departSpeed="desired" />
  <flow id="f_r23_165" type="hdv" begin="360" departLane="best" route="r23" end="390" vehsPerHour="1087.59" departSpeed="desired" />
  <flow id="f_r25_166" type="hdv" begin="360" departLane="best" route="r25" end="390" vehsPerHour="1800.73" departSpeed="desired" />
  <flow id="f_r1_167" type="hdv" begin="390" departLane="best" route="r1" end="420" vehsPerHour="168.00" departSpeed="desired" />
  <flow id="f_r3_168" type="hdv" begin="390" departLane="best" route="r3" end="420" vehsPerHour="8.70" departSpeed="desired" />
  <flow id="f_r4_169" type="hdv" begin="390" departLane="best" route="r4" end="420" vehsPerHour="8.70" departSpeed="desired" />
  <flow id="f_r9_170" type="hdv" begin="390" departLane="best" route="r9" end="420" vehsPerHour="88.95" departSpeed="desired" />
  <flow id="f_r10_171" type="hdv" begin="390" departLane="best" route="r10" end="420" vehsPerHour="88.95" departSpeed="desired" />
  <flow id="f_r11_172" type="hdv" begin="390" departLane="best" route="r11" end="420" vehsPerHour="97.75" departSpeed="desired" />
  <flow id="f_r12_173" type="hdv" begin="390" departLane="best" route="r12" end="420" vehsPerHour="97.75" departSpeed="desired" />
  <flow id="f_r13_174" type="hdv" begin="390" departLane="best" route="r13" end="420" vehsPerHour="7.09" departSpeed="desired" />
  <flow id="f_r19_175" type="hdv" begin="390" departLane="best" route="r19" end="420" vehsPerHour="262.25" departSpeed="desired" />
  <flow id="f_r20_176" type="hdv" begin="390" departLane="best" route="r20" end="420" vehsPerHour="262.25" departSpeed="desired" />
  <flow id="f_r21_177" type="hdv" begin="390" departLane="best" route="r21" end="420" vehsPerHour="495.85" departSpeed="desired" />
  <flow id="f_r23_178" type="hdv" begin="390" departLane="best" route="r23" end="420" vehsPerHour="1100.15" departSpeed="desired" />
  <flow id="f_r25_179" type="hdv" begin="390" departLane="best" route="r25" end="420" vehsPerHour="1817.66" departSpeed="desired" />
  <flow id="f_r1_180" type="hdv" begin="420" departLane="best" route="r1" end="450" vehsPerHour="132.00" departSpeed="desired" />
  <flow id="f_r3_181" type="hdv" begin="420" departLane="best" route="r3" end="450" vehsPerHour="11.50" departSpeed="desired" />
  <flow id="f_r4_182" type="hdv" begin="420" departLane="best" route="r4" end="450" vehsPerHour="11.50" departSpeed="desired" />
  <flow id="f_r9_183" type="hdv" begin="420" departLane="best" route="r9" end="450" vehsPerHour="94.01" departSpeed="desired" />
  <flow id="f_r10_184" type="hdv" begin="420" departLane="best" route="r10" end="450" vehsPerHour="94.01" departSpeed="desired" />
  <flow id="f_r11_185" type="hdv" begin="420" departLane="best" route="r11" end="450" vehsPerHour="98.53" departSpeed="desired" />
  <flow id="f_r12_186" type="hdv" begin="420" departLane="best" route="r12" end="450" vehsPerHour="98.53" departSpeed="desired" />
  <flow id="f_r13_187" type="hdv" begin="420" departLane="best" route="r13" end="450" vehsPerHour="7.09" departSpeed="desired" />
  <flow id="f_r19_188" type="hdv" begin="420" departLane="best" route="r19" end="450" vehsPerHour="273.47" departSpeed="desired" />
  <flow id="f_r20_189" type="hdv" begin="420" departLane="best" route="r20" end="450" vehsPerHour="273.47" departSpeed="desired" />
  <flow id="f_r21_190" type="hdv" begin="420" departLane="best" route="r21" end="450" vehsPerHour="485.68" departSpeed="desired" />
  <flow id="f_r23_191" type="hdv" begin="420" departLane="best" route="r23" end="450" vehsPerHour="1110.32" departSpeed="desired" />
  <flow id="f_r25_192" type="hdv" begin="420" departLane="best" route="r25" end="450" vehsPerHour="1829.38" departSpeed="desired" />
  <flow id="f_r1_193" type="hdv" begin="450" departLane="best" route="r1" end="480" vehsPerHour="132.00" departSpeed="desired" />
  <flow id="f_r3_194" type="hdv" begin="450" departLane="best" route="r3" end="480" vehsPerHour="11.50" departSpeed="desired" />
  <flow id="f_r4_195" type="hdv" begin="450" departLane="best" route="r4" end="480" vehsPerHour="11.50" departSpeed="desired" />
  <flow id="f_r9_196" type="hdv" begin="450" departLane="best" route="r9" end="480" vehsPerHour="94.01" departSpeed="desired" />
  <flow id="f_r10_197" type="hdv" begin="450" departLane="best" route="r10" end="480" vehsPerHour="94.01" departSpeed="desired" />
  <flow id="f_r11_198" type="hdv" begin="450" departLane="best" route="r11" end="480" vehsPerHour="88.06" departSpeed="desired" />
  <flow id="f_r12_199" type="hdv" begin="450" departLane="best" route="r12" end="480" vehsPerHour="88.06" departSpeed="desired" />
  <flow id="f_r13_200" type="hdv" begin="450" departLane="best" route="r13" end="480" vehsPerHour="6.97" departSpeed="desired" />
  <flow id="f_r19_201" type="hdv" begin="450" departLane="best" route="r19" end="480" vehsPerHour="271.94" departSpeed="desired" />
  <flow id="f_r20_202" type="hdv" begin="450" departLane="best" route="r20" end="480" vehsPerHour="271.94" departSpeed="desired" />
  <flow id="f_r21_203" type="hdv" begin="450" departLane="best" route="r21" end="480" vehsPerHour="521.82" departSpeed="desired" />
  <flow id="f_r23_204" type="hdv" begin="450" departLane="best" route="r23" end="480" vehsPerHour="1050.18" departSpeed="desired" />
  <flow id="f_r25_205" type="hdv" begin="450" departLane="best" route="r25" end="480" vehsPerHour="1826.30" departSpeed="desired" />
  <flow id="f_r1_206" type="hdv" begin="480" departLane="best" route="r1" end="510" vehsPerHour="120.00" departSpeed="desired" />
  <flow id="f_r3_207" type="hdv" begin="480" departLane="best" route="r3" end="510" vehsPerHour="11.50" departSpeed="desired" />
  <flow id="f_r4_208" type="hdv" begin="480" departLane="best" route="r4" end="510" vehsPerHour="11.50" departSpeed="desired" />
  <flow id="f_r9_209" type="hdv" begin="480" departLane="best" route="r9" end="510" vehsPerHour="83.87" departSpeed="desired" />
  <flow id="f_r10_210" type="hdv" begin="480" departLane="best" route="r10" end="510" vehsPerHour="83.87" departSpeed="desired" />
  <flow id="f_r11_211" type="hdv" begin="480" departLane="best" route="r11" end="510" vehsPerHour="80.19" departSpeed="desired" />
  <flow id="f_r12_212" type="hdv" begin="480" departLane="best" route="r12" end="510" vehsPerHour="80.19" departSpeed="desired" />
  <flow id="f_r13_213" type="hdv" begin="480" departLane="best" route="r13" end="510" vehsPerHour="6.97" departSpeed="desired" />
  <flow id="f_r19_214" type="hdv" begin="480" departLane="best" route="r19" end="510" vehsPerHour="264.58" departSpeed="desired" />
  <flow id="f_r20_215" type="hdv" begin="480" departLane="best" route="r20" end="510" vehsPerHour="264.58" departSpeed="desired" />
  <flow id="f_r21_216" type="hdv" begin="480" departLane="best" route="r21" end="510" vehsPerHour="560.77" departSpeed="desired" />
  <flow id="f_r23_217" type="hdv" begin="480" departLane="best" route="r23" end="510" vehsPerHour="987.23" departSpeed="desired" />
  <flow id="f_r25_218" type="hdv" begin="480" departLane="best" route="r25" end="510" vehsPerHour="1856.07" departSpeed="desired" />
  <flow id="f_r1_219" type="hdv" begin="510" departLane="best" route="r1" end="540" vehsPerHour="96.00" departSpeed="desired" />
  <flow id="f_r3_220" type="hdv" begin="510" departLane="best" route="r3" end="540" vehsPerHour="10.66" departSpeed="desired" />
  <flow id="f_r4_221" type="hdv" begin="510" departLane="best" route="r4" end="540" vehsPerHour="10.66" departSpeed="desired" />
  <flow id="f_r9_222" type="hdv" begin="510" departLane="best" route="r9" end="540" vehsPerHour="62.71" departSpeed="desired" />
  <flow id="f_r10_223" type="hdv" begin="510" departLane="best" route="r10" end="540" vehsPerHour="62.71" departSpeed="desired" />