<?xml version="1.0" ?>
<routes xmlns:xsi="http://www.w3.org/2001/XMLSchema-instance" xsi:noNamespaceSchemaLocation="http://sumo.dlr.de/xsd/routes_file.xsd">
    
  
    
    
    
  
    <vType id="hdv" length="4.3" carFollowModel="IDM" emergencyDecel="4.0" laneChangeModel="SL2015" latAlignment="arbitrary" lcKeepRight="0.0" lcOvertakeRight="0.0" maxSpeed="30.55" minGap="2.5" accel="1.5" decel="2" tau="1.4" lcSublane="1.0" maxSpeedLat="1.4" lcAccelLat="0.7" minGapLat="0.4" lcStrategic="10.0" lcCooperative="1.0" lcPushy="0.4" lcImpatience="0.9" lcSpeedGain="1.5">
        
    
        <param key="has.fcd.device" value="true"/>
        
  
    </vType>
    
       
    
  
    <route id="r_0" edges="E0 E1 E3 E5 E7 E8"/>
    
   
    
  
    <route id="r_1" edges="E0 E1 E3 E4"/>
    
    
    
  
    <route id="r_2" edges="E2 E1 E3 E4"/>
    
    
    
  
    <route id="r_3" edges="E2 E1 E3 E5 E7 E8"/>
    
    
    
  
    <route id="r_4" edges="E6 E7 E8"/>

    <flow id="flow_r_0_b10" route="r_0" begin="0" end="1800" vehsPerHour="5292.8" departSpeed="desired" departLane="best" type="hdv"/>
    <flow id="flow_r_1_b10" route="r_1" begin="0" end="1800" vehsPerHour="437.6" departSpeed="desired" departLane="best" type="hdv"/>
    <flow id="flow_r_2_b10" route="r_2" begin="0" end="1800" vehsPerHour="437.6" departSpeed="desired" departLane="best" type="hdv"/>
    <flow id="flow_r_3_b10" route="r_3" begin="0" end="1800" vehsPerHour="1323.2" departSpeed="desired" departLane="best" type="hdv"/>
    <flow id="flow_r_4_b10" route="r_4" begin="0" end="1800" vehsPerHour="1344.0" departSpeed="desired" departLane="best" type="hdv"/>
    <flow id="flow_r_0_b11" route="r_0" begin="1800" end="3600" vehsPerHour="1336.18" departSpeed="desired" departLane="best" type="hdv"/>
    <flow id="flow_r_1_b11" route="r_1" begin="1800" end="3600" vehsPerHour="108.58" departSpeed="desired" departLane="best" type="hdv"/>
    <flow id="flow_r_2_b11" route="r_2" begin="1800" end="3600" vehsPerHour="108.58" departSpeed="desired" departLane="best" type="hdv"/>
    <flow id="flow_r_3_b11" route="r_3" begin="1800" end="3600" vehsPerHour="334.04" departSpeed="desired" departLane="best" type="hdv"/>
    <flow id="flow_r_4_b11" route="r_4" begin="1800" end="3600" vehsPerHour="350.67" departSpeed="desired" departLane="best" type="hdv"/>
    <flow id="flow_r_0_b12" route="r_0" begin="3600" end="5400" vehsPerHour="2035.2" departSpeed="desired" departLane="best" type="hdv"/>
    <flow id="flow_r_1_b12" route="r_1" begin="3600" end="5400" vehsPerHour="169.13" departSpeed="desired" departLane="best" type="hdv"/>
    <flow id="flow_r_2_b12" route="r_2" begin="3600" end="5400" vehsPerHour="169.13" departSpeed="desired" departLane="best" type="hdv"/>
    <flow id="flow_r_3_b12" route="r_3" begin="3600" end="5400" vehsPerHour="508.8" departSpeed="desired" departLane="best" type="hdv"/>
    <flow id="flow_r_4_b12" route="r_4" begin="3600" end="5400" vehsPerHour="511.6" departSpeed="desired" departLane="best" type="hdv"/>
    <flow id="flow_r_0_b13" route="r_0" begin="5400" end="7200" vehsPerHour="4045.87" departSpeed="desired" departLane="best" type="hdv"/>
    <flow id="flow_r_1_b13" route="r_1" begin="5400" end="7200" vehsPerHour="332.6" departSpeed="desired" departLane="best" type="hdv"/>
    <flow id="flow_r_2_b13" route="r_2" begin="5400" end="7200" vehsPerHour="332.6" departSpeed="desired" departLane="best" type="hdv"/>
    <flow id="flow_r_3_b13" route="r_3" begin="5400" end="7200" vehsPerHour="1011.47" departSpeed="desired" departLane="best" type="hdv"/>
    <flow id="flow_r_4_b13" route="r_4" begin="5400" end="7200" vehsPerHour="1038.8" departSpeed="desired" departLane="best" type="hdv"/>
    <flow id="flow_r_0_b14" route="r_0" begin="7200" end="9000" vehsPerHour="1351.29" departSpeed="desired" departLane="best" type="hdv"/>
    <flow id="flow_r_1_b14" route="r_1" begin="7200" end="9000" vehsPerHour="111.09" departSpeed="desired" departLane="best" type="hdv"/>
    <flow id="flow_r_2_b14" route="r_2" begin="7200" end="9000" vehsPerHour="111.09" departSpeed="desired" departLane="best" type="hdv"/>
    <flow id="flow_r_3_b14" route="r_3" begin="7200" end="9000" vehsPerHour="337.82" departSpeed="desired" departLane="best" type="hdv"/>
    <flow id="flow_r_4_b14" route="r_4" begin="7200" end="9000" vehsPerHour="346.93" departSpeed="desired" departLane="best" type="hdv"/>
    <flow id="flow_r_0_b15" route="r_0" begin="9000" end="10800" vehsPerHour="3214.08" departSpeed="desired" departLane="best" type="hdv"/>
    <flow id="flow_r_1_b15" route="r_1" begin="9000" end="10800" vehsPerHour="264.27" departSpeed="desired" departLane="best" type="hdv"/>
    <flow id="flow_r_2_b15" route="r_2" begin="9000" end="10800" vehsPerHour="264.27" departSpeed="desired" departLane="best" type="hdv"/>
    <flow id="flow_r_3_b15" route="r_3" begin="9000" end="10800" vehsPerHour="803.52" departSpeed="desired" departLane="best" type="hdv"/>
    <flow id="flow_r_4_b15" route="r_4" begin="9000" end="10800" vehsPerHour="824.96" departSpeed="desired" departLane="best" type="hdv"/>
</routes>
