<?xml version='1.0' encoding='UTF-8'?>
<routes>
    <vType id="hdv" length="4.3" carFollowModel="IDM" emergencyDecel="4.0" laneChangeModel="SL2015" latAlignment="arbitrary" lcKeepRight="0.0" lcOvertakeRight="0.0" maxSpeed="30.55" minGap="2.5" accel="1.5" decel="2" tau="1.4" lcSublane="1.0" maxSpeedLat="1.4" lcAccelLat="0.7" minGapLat="0.4" lcStrategic="10.0" lcCooperative="1.0" lcPushy="0.4" lcImpatience="0.9" lcSpeedGain="1.5">
        <param key="has.fcd.device" value="true" />
    </vType><route id="E0_E8.qPKW.0" edges="E0 E1 E3 E5 E7 E8" />
    <route id="E6_E8.qPKW.0" edges="E6 E7 E8" />
    <route id="E0_E8.qPKW.5.0" edges="E0 E1 E3 E5 E7 E8" />
    <route id="E2_E4.qPKW.5.0" edges="E2 E1 E3 E4" />
    <route id="E0_E8.qPKW.10.0" edges="E0 E1 E3 E5 E7 E8" />
    <route id="E2_E4.qPKW.10.0" edges="E2 E1 E3 E4" />
    <route id="E0_E8.qPKW.15.0" edges="E0 E1 E3 E5 E7 E8" />
    <route id="E2_E4.qPKW.15.0" edges="E2 E1 E3 E4" />
    <route id="E0_E8.qPKW.20.0" edges="E0 E1 E3 E5 E7 E8" />
    <route id="E2_E4.qPKW.20.0" edges="E2 E1 E3 E4" />
    <route id="E0_E8.qPKW.25.0" edges="E0 E1 E3 E5 E7 E8" />
    <route id="E2_E4.qPKW.25.0" edges="E2 E1 E3 E4" />
    <route id="E0_E8.qPKW.30.0" edges="E0 E1 E3 E5 E7 E8" />
    <route id="E6_E8.qPKW.30.0" edges="E6 E7 E8" />
    <route id="E0_E8.qPKW.35.0" edges="E0 E1 E3 E5 E7 E8" />
    <route id="E2_E4.qPKW.35.0" edges="E2 E1 E3 E4" />
    <route id="E0_E8.qPKW.40.0" edges="E0 E1 E3 E5 E7 E8" />
    <route id="E2_E4.qPKW.40.0" edges="E2 E1 E3 E4" />
    <route id="E0_E8.qPKW.45.0" edges="E0 E1 E3 E5 E7 E8" />
    <route id="E2_E4.qPKW.45.0" edges="E2 E1 E3 E4" />
    <route id="E0_E8.qPKW.50.0" edges="E0 E1 E3 E5 E7 E8" />
    <route id="E2_E4.qPKW.50.0" edges="E2 E1 E3 E4" />
    <route id="E0_E8.qPKW.55.0" edges="E0 E1 E3 E5 E7 E8" />
    <route id="E2_E4.qPKW.55.0" edges="E2 E1 E3 E4" />
    <route id="E0_E8.qPKW.60.0" edges="E0 E1 E3 E5 E7 E8" />
    <route id="E6_E8.qPKW.60.0" edges="E6 E7 E8" />
    <route id="E0_E8.qPKW.65.0" edges="E0 E1 E3 E5 E7 E8" />
    <route id="E6_E8.qPKW.65.0" edges="E6 E7 E8" />
    <route id="E0_E8.qPKW.70.0" edges="E0 E1 E3 E5 E7 E8" />
    <route id="E6_E8.qPKW.70.0" edges="E6 E7 E8" />
    <route id="E0_E8.qPKW.75.0" edges="E0 E1 E3 E5 E7 E8" />
    <route id="E2_E4.qPKW.75.0" edges="E2 E1 E3 E4" />
    <route id="E0_E8.qPKW.80.0" edges="E0 E1 E3 E5 E7 E8" />
    <route id="E6_E8.qPKW.80.0" edges="E6 E7 E8" />
    <route id="E0_E8.qPKW.85.0" edges="E0 E1 E3 E5 E7 E8" />
    <route id="E6_E8.qPKW.85.0" edges="E6 E7 E8" />
    <route id="E0_E8.qPKW.90.0" edges="E0 E1 E3 E5 E7 E8" />
    <route id="E6_E8.qPKW.90.0" edges="E6 E7 E8" />
    <route id="E0_E8.qPKW.95.0" edges="E0 E1 E3 E5 E7 E8" />
    <route id="E6_E8.qPKW.95.0" edges="E6 E7 E8" />
    <route id="E0_E8.qPKW.100.0" edges="E0 E1 E3 E5 E7 E8" />
    <route id="E6_E8.qPKW.100.0" edges="E6 E7 E8" />
    <route id="E0_E8.qPKW.105.0" edges="E0 E1 E3 E5 E7 E8" />
    <route id="E6_E8.qPKW.105.0" edges="E6 E7 E8" />
    <route id="E0_E8.qPKW.110.0" edges="E0 E1 E3 E5 E7 E8" />
    <route id="E6_E8.qPKW.110.0" edges="E6 E7 E8" />
    <route id="E0_E8.qPKW.115.0" edges="E0 E1 E3 E5 E7 E8" />
    <route id="E6_E8.qPKW.115.0" edges="E6 E7 E8" />
    <route id="E0_E8.qPKW.120.0" edges="E0 E1 E3 E5 E7 E8" />
    <route id="E6_E8.qPKW.120.0" edges="E6 E7 E8" />
    <route id="E0_E8.qPKW.125.0" edges="E0 E1 E3 E5 E7 E8" />
    <route id="E6_E8.qPKW.125.0" edges="E6 E7 E8" />
    <route id="E0_E8.qPKW.130.0" edges="E0 E1 E3 E5 E7 E8" />
    <route id="E6_E8.qPKW.130.0" edges="E6 E7 E8" />
    <route id="E0_E8.qPKW.135.0" edges="E0 E1 E3 E5 E7 E8" />
    <route id="E6_E8.qPKW.135.0" edges="E6 E7 E8" />
    <route id="E0_E8.qPKW.140.0" edges="E0 E1 E3 E5 E7 E8" />
    <route id="E6_E8.qPKW.140.0" edges="E6 E7 E8" />
    <route id="E0_E8.qPKW.145.0" edges="E0 E1 E3 E5 E7 E8" />
    <route id="E6_E8.qPKW.145.0" edges="E6 E7 E8" />
    <route id="E0_E8.qPKW.150.0" edges="E0 E1 E3 E5 E7 E8" />
    <route id="E6_E8.qPKW.150.0" edges="E6 E7 E8" />
    <route id="E0_E8.qPKW.155.0" edges="E0 E1 E3 E5 E7 E8" />
    <route id="E6_E8.qPKW.155.0" edges="E6 E7 E8" />
    <route id="E0_E8.qPKW.160.0" edges="E0 E1 E3 E5 E7 E8" />
    <route id="E6_E8.qPKW.160.0" edges="E6 E7 E8" />
    <route id="E0_E8.qPKW.165.0" edges="E0 E1 E3 E5 E7 E8" />
    <route id="E6_E8.qPKW.165.0" edges="E6 E7 E8" />
    <route id="E0_E8.qPKW.170.0" edges="E0 E1 E3 E5 E7 E8" />
    <route id="E6_E8.qPKW.170.0" edges="E6 E7 E8" />
    <route id="E0_E8.qPKW.175.0" edges="E0 E1 E3 E5 E7 E8" />
    <route id="E6_E8.qPKW.175.0" edges="E6 E7 E8" />
<flow id="E0_E8.qPKW.0" departSpeed="max" departPos="last" departLane="best" route="E0_E8.qPKW.0" number="237" begin="0" end="300.0" />
    <flow id="E6_E8.qPKW.0" departSpeed="max" departPos="last" departLane="best" route="E6_E8.qPKW.0" number="3" begin="0" end="300.0" />
    <flow id="E0_E8.qPKW.5.0" departSpeed="max" departPos="last" departLane="best" route="E0_E8.qPKW.5.0" number="302" begin="300.0" end="600.0" />
    <flow id="E2_E4.qPKW.5.0" departSpeed="max" departPos="last" departLane="best" route="E2_E4.qPKW.5.0" number="6" begin="300.0" end="600.0" />
    <flow id="E0_E8.qPKW.10.0" departSpeed="max" departPos="last" departLane="best" route="E0_E8.qPKW.10.0" number="278" begin="600.0" end="900.0" />
    <flow id="E2_E4.qPKW.10.0" departSpeed="max" departPos="last" departLane="best" route="E2_E4.qPKW.10.0" number="19" begin="600.0" end="900.0" />
    <flow id="E0_E8.qPKW.15.0" departSpeed="max" departPos="last" departLane="best" route="E0_E8.qPKW.15.0" number="341" begin="900.0" end="1200.0" />
    <flow id="E2_E4.qPKW.15.0" departSpeed="max" departPos="last" departLane="best" route="E2_E4.qPKW.15.0" number="18" begin="900.0" end="1200.0" />
    <flow id="E0_E8.qPKW.20.0" departSpeed="max" departPos="last" departLane="best" route="E0_E8.qPKW.20.0" number="397" begin="1200.0" end="1500.0" />
    <flow id="E2_E4.qPKW.20.0" departSpeed="max" departPos="last" departLane="best" route="E2_E4.qPKW.20.0" number="3" begin="1200.0" end="1500.0" />
    <flow id="E0_E8.qPKW.25.0" departSpeed="max" departPos="last" departLane="best" route="E0_E8.qPKW.25.0" number="467" begin="1500.0" end="1800.0" />
    <flow id="E2_E4.qPKW.25.0" departSpeed="max" departPos="last" departLane="best" route="E2_E4.qPKW.25.0" number="22" begin="1500.0" end="1800.0" />
    <flow id="E0_E8.qPKW.30.0" departSpeed="max" departPos="last" departLane="best" route="E0_E8.qPKW.30.0" number="528" begin="1800.0" end="2100.0" />
    <flow id="E6_E8.qPKW.30.0" departSpeed="max" departPos="last" departLane="best" route="E6_E8.qPKW.30.0" number="37" begin="1800.0" end="2100.0" />
    <flow id="E0_E8.qPKW.35.0" departSpeed="max" departPos="last" departLane="best" route="E0_E8.qPKW.35.0" number="533" begin="2100.0" end="2400.0" />
    <flow id="E2_E4.qPKW.35.0" departSpeed="max" departPos="last" departLane="best" route="E2_E4.qPKW.35.0" number="20" begin="2100.0" end="2400.0" />
    <flow id="E0_E8.qPKW.40.0" departSpeed="max" departPos="last" departLane="best" route="E0_E8.qPKW.40.0" number="610" begin="2400.0" end="2700.0" />
    <flow id="E2_E4.qPKW.40.0" departSpeed="max" departPos="last" departLane="best" route="E2_E4.qPKW.40.0" number="15" begin="2400.0" end="2700.0" />
    <flow id="E0_E8.qPKW.45.0" departSpeed="max" departPos="last" departLane="best" route="E0_E8.qPKW.45.0" number="618" begin="2700.0" end="3000.0" />
    <flow id="E2_E4.qPKW.45.0" departSpeed="max" departPos="last" departLane="best" route="E2_E4.qPKW.45.0" number="18" begin="2700.0" end="3000.0" />
    <flow id="E0_E8.qPKW.50.0" departSpeed="max" departPos="last" departLane="best" route="E0_E8.qPKW.50.0" number="568" begin="3000.0" end="3300.0" />
    <flow id="E2_E4.qPKW.50.0" departSpeed="max" departPos="last" departLane="best" route="E2_E4.qPKW.50.0" number="62" begin="3000.0" end="3300.0" />
    <flow id="E0_E8.qPKW.55.0" departSpeed="max" departPos="last" departLane="best" route="E0_E8.qPKW.55.0" number="549" begin="3300.0" end="3600.0" />
    <flow id="E2_E4.qPKW.55.0" departSpeed="max" departPos="last" departLane="best" route="E2_E4.qPKW.55.0" number="72" begin="3300.0" end="3600.0" />
    <flow id="E0_E8.qPKW.60.0" departSpeed="max" departPos="last" departLane="best" route="E0_E8.qPKW.60.0" number="552" begin="3600.0" end="3900.0" />
    <flow id="E6_E8.qPKW.60.0" departSpeed="max" departPos="last" departLane="best" route="E6_E8.qPKW.60.0" number="51" begin="3600.0" end="3900.0" />
    <flow id="E0_E8.qPKW.65.0" departSpeed="max" departPos="last" departLane="best" route="E0_E8.qPKW.65.0" number="552" begin="3900.0" end="4200.0" />
    <flow id="E6_E8.qPKW.65.0" departSpeed="max" departPos="last" departLane="best" route="E6_E8.qPKW.65.0" number="23" begin="3900.0" end="4200.0" />
    <flow id="E0_E8.qPKW.70.0" departSpeed="max" departPos="last" departLane="best" route="E0_E8.qPKW.70.0" number="545" begin="4200.0" end="4500.0" />
    <flow id="E6_E8.qPKW.70.0" departSpeed="max" departPos="last" departLane="best" route="E6_E8.qPKW.70.0" number="18" begin="4200.0" end="4500.0" />
    <flow id="E0_E8.qPKW.75.0" departSpeed="max" departPos="last" departLane="best" route="E0_E8.qPKW.75.0" number="573" begin="4500.0" end="4800.0" />
    <flow id="E2_E4.qPKW.75.0" departSpeed="max" departPos="last" departLane="best" route="E2_E4.qPKW.75.0" number="36" begin="4500.0" end="4800.0" />
    <flow id="E0_E8.qPKW.80.0" departSpeed="max" departPos="last" departLane="best" route="E0_E8.qPKW.80.0" number="558" begin="4800.0" end="5100.0" />
    <flow id="E6_E8.qPKW.80.0" departSpeed="max" departPos="last" departLane="best" route="E6_E8.qPKW.80.0" number="38" begin="4800.0" end="5100.0" />
    <flow id="E0_E8.qPKW.85.0" departSpeed="max" departPos="last" departLane="best" route="E0_E8.qPKW.85.0" number="482" begin="5100.0" end="5400.0" />
    <flow id="E6_E8.qPKW.85.0" departSpeed="max" departPos="last" departLane="best" route="E6_E8.qPKW.85.0" number="69" begin="5100.0" end="5400.0" />
    <flow id="E0_E8.qPKW.90.0" departSpeed="max" departPos="last" departLane="best" route="E0_E8.qPKW.90.0" number="548" begin="5400.0" end="5700.0" />
    <flow id="E6_E8.qPKW.90.0" departSpeed="max" departPos="last" departLane="best" route="E6_E8.qPKW.90.0" number="3" begin="5400.0" end="5700.0" />
    <flow id="E0_E8.qPKW.95.0" departSpeed="max" departPos="last" departLane="best" route="E0_E8.qPKW.95.0" number="517" begin="5700.0" end="6000.0" />
    <flow id="E6_E8.qPKW.95.0" departSpeed="max" departPos="last" departLane="best" route="E6_E8.qPKW.95.0" number="33" begin="5700.0" end="6000.0" />
    <flow id="E0_E8.qPKW.100.0" departSpeed="max" departPos="last" departLane="best" route="E0_E8.qPKW.100.0" number="428" begin="6000.0" end="6300.0" />
    <flow id="E6_E8.qPKW.100.0" departSpeed="max" departPos="last" departLane="best" route="E6_E8.qPKW.100.0" number="89" begin="6000.0" end="6300.0" />
    <flow id="E0_E8.qPKW.105.0" departSpeed="max" departPos="last" departLane="best" route="E0_E8.qPKW.105.0" number="381" begin="6300.0" end="6600.0" />
    <flow id="E6_E8.qPKW.105.0" departSpeed="max" departPos="last" departLane="best" route="E6_E8.qPKW.105.0" number="147" begin="6300.0" end="6600.0" />
    <flow id="E0_E8.qPKW.110.0" departSpeed="max" departPos="last" departLane="best" route="E0_E8.qPKW.110.0" number="487" begin="6600.0" end="6900.0" />
    <flow id="E6_E8.qPKW.110.0" departSpeed="max" departPos="last" departLane="best" route="E6_E8.qPKW.110.0" number="36" begin="6600.0" end="6900.0" />
    <flow id="E0_E8.qPKW.115.0" departSpeed="max" departPos="last" departLane="best" route="E0_E8.qPKW.115.0" number="476" begin="6900.0" end="7200.0" />
    <flow id="E6_E8.qPKW.115.0" departSpeed="max" departPos="last" departLane="best" route="E6_E8.qPKW.115.0" number="38" begin="6900.0" end="7200.0" />
    <flow id="E0_E8.qPKW.120.0" departSpeed="max" departPos="last" departLane="best" route="E0_E8.qPKW.120.0" number="447" begin="7200.0" end="7500.0" />
    <flow id="E6_E8.qPKW.120.0" departSpeed="max" departPos="last" departLane="best" route="E6_E8.qPKW.120.0" number="15" begin="7200.0" end="7500.0" />
    <flow id="E0_E8.qPKW.125.0" departSpeed="max" departPos="last" departLane="best" route="E0_E8.qPKW.125.0" number="346" begin="7500.0" end="7800.0" />
    <flow id="E6_E8.qPKW.125.0" departSpeed="max" departPos="last" departLane="best" route="E6_E8.qPKW.125.0" number="107" begin="7500.0" end="7800.0" />
    <flow id="E0_E8.qPKW.130.0" departSpeed="max" departPos="last" departLane="best" route="E0_E8.qPKW.130.0" number="318" begin="7800.0" end="8100.0" />
    <flow id="E6_E8.qPKW.130.0" departSpeed="max" departPos="last" departLane="best" route="E6_E8.qPKW.130.0" number="211" begin="7800.0" end="8100.0" />
    <flow id="E0_E8.qPKW.135.0" departSpeed="max" departPos="last" departLane="best" route="E0_E8.qPKW.135.0" number="415" begin="8100.0" end="8400.0" />
    <flow id="E6_E8.qPKW.135.0" departSpeed="max" departPos="last" departLane="best" route="E6_E8.qPKW.135.0" number="112" begin="8100.0" end="8400.0" />
    <flow id="E0_E8.qPKW.140.0" departSpeed="max" departPos="last" departLane="best" route="E0_E8.qPKW.140.0" number="418" begin="8400.0" end="8700.0" />
    <flow id="E6_E8.qPKW.140.0" departSpeed="max" departPos="last" departLane="best" route="E6_E8.qPKW.140.0" number="115" begin="8400.0" end="8700.0" />
    <flow id="E0_E8.qPKW.145.0" departSpeed="max" departPos="last" departLane="best" route="E0_E8.qPKW.145.0" number="400" begin="8700.0" end="9000.0" />
    <flow id="E6_E8.qPKW.145.0" departSpeed="max" departPos="last" departLane="best" route="E6_E8.qPKW.145.0" number="131" begin="8700.0" end="9000.0" />
    <flow id="E0_E8.qPKW.150.0" departSpeed="max" departPos="last" departLane="best" route="E0_E8.qPKW.150.0" number="425" begin="9000.0" end="9300.0" />
    <flow id="E6_E8.qPKW.150.0" departSpeed="max" departPos="last" departLane="best" route="E6_E8.qPKW.150.0" number="132" begin="9000.0" end="9300.0" />
    <flow id="E0_E8.qPKW.155.0" departSpeed="max" departPos="last" departLane="best" route="E0_E8.qPKW.155.0" number="347" begin="9300.0" end="9600.0" />
    <flow id="E6_E8.qPKW.155.0" departSpeed="max" departPos="last" departLane="best" route="E6_E8.qPKW.155.0" number="190" begin="9300.0" end="9600.0" />
    <flow id="E0_E8.qPKW.160.0" departSpeed="max" departPos="last" departLane="best" route="E0_E8.qPKW.160.0" number="487" begin="9600.0" end="9900.0" />
    <flow id="E6_E8.qPKW.160.0" departSpeed="max" departPos="last" departLane="best" route="E6_E8.qPKW.160.0" number="35" begin="9600.0" end="9900.0" />
    <flow id="E0_E8.qPKW.165.0" departSpeed="max" departPos="last" departLane="best" route="E0_E8.qPKW.165.0" number="449" begin="9900.0" end="10200.0" />
    <flow id="E6_E8.qPKW.165.0" departSpeed="max" departPos="last" departLane="best" route="E6_E8.qPKW.165.0" number="75" begin="9900.0" end="10200.0" />
    <flow id="E0_E8.qPKW.170.0" departSpeed="max" departPos="last" departLane="best" route="E0_E8.qPKW.170.0" number="453" begin="10200.0" end="10500.0" />
    <flow id="E6_E8.qPKW.170.0" departSpeed="max" departPos="last" departLane="best" route="E6_E8.qPKW.170.0" number="66" begin="10200.0" end="10500.0" />
    <flow id="E0_E8.qPKW.175.0" departSpeed="max" departPos="last" departLane="best" route="E0_E8.qPKW.175.0" number="447" begin="10500.0" end="10800.0" />
    <flow id="E6_E8.qPKW.175.0" departSpeed="max" departPos="last" departLane="best" route="E6_E8.qPKW.175.0" number="52" begin="10500.0" end="10800.0" />
</routes>